
     RDKit          3D

 47 50  0  0  0  0  0  0  0  0999 V2000
    4.6482   -1.8432   -1.0058 C   0  0  0  0  0  0  0  0  0  0  0  0
    4.8242   -0.5816   -0.2048 C   0  0  0  0  0  0  0  0  0  0  0  0
    6.1159   -0.1820    0.1763 C   0  0  0  0  0  0  0  0  0  0  0  0
    6.3108    0.9827    0.9163 C   0  0  0  0  0  0  0  0  0  0  0  0
    5.2183    1.7622    1.2788 C   0  0  0  0  0  0  0  0  0  0  0  0
    3.9303    1.3759    0.9026 C   0  0  0  0  0  0  0  0  0  0  0  0
    3.7103    0.2014    0.1643 C   0  0  0  0  0  0  0  0  0  0  0  0
    2.4251   -0.1906   -0.2493 N   0  0  0  0  0  0  0  0  0  0  0  0
    1.4281   -0.3213    0.8340 C   0  0  0  0  0  0  0  0  0  0  0  0
    0.0186   -0.4900    0.2412 C   0  0  0  0  0  0  0  0  0  0  0  0
   -0.4041    0.7140   -0.5611 N   0  0  0  0  0  0  0  0  0  0  0  0
   -1.5103    1.7553    0.2131 S   0  0  0  0  0  6  0  0  0  0  0  0
   -1.8039    2.8504   -0.6854 O   0  0  0  0  0  0  0  0  0  0  0  0
   -1.0144    1.9857    1.5534 O   0  0  0  0  0  0  0  0  0  0  0  0
   -2.9751    0.7565    0.3110 C   0  0  0  0  0  0  0  0  0  0  0  0
   -3.5161    0.4214    1.5574 C   0  0  0  0  0  0  0  0  0  0  0  0
   -4.6676   -0.3620    1.6129 C   0  0  0  0  0  0  0  0  0  0  0  0
   -5.2567   -0.7897    0.4231 C   0  0  0  0  0  0  0  0  0  0  0  0
   -6.4183   -1.5800    0.5282 O   0  0  0  0  0  0  0  0  0  0  0  0
   -7.0753   -2.0465   -0.6025 C   0  0  0  0  0  0  0  0  0  0  0  0
   -8.0850   -2.7376   -0.5369 O   0  0  0  0  0  0  0  0  0  0  0  0
   -6.5010   -1.6761   -1.9083 C   0  0  0  0  0  0  0  0  0  0  0  0
   -5.3985   -0.9291   -2.0231 C   0  0  0  0  0  0  0  0  0  0  0  0
   -4.7286   -0.4541   -0.8241 C   0  0  0  0  0  0  0  0  0  0  0  0
   -3.5759    0.3289   -0.8814 C   0  0  0  0  0  0  0  0  0  0  0  0
    0.7669    1.4581   -1.1512 C   0  0  0  0  0  0  0  0  0  0  0  0
    1.9553    0.5311   -1.4546 C   0  0  0  0  0  0  0  0  0  0  0  0
    3.9627   -2.5276   -0.4954 H   0  0  0  0  0  0  0  0  0  0  0  0
    4.2576   -1.6092   -2.0013 H   0  0  0  0  0  0  0  0  0  0  0  0
    5.5988   -2.3711   -1.1368 H   0  0  0  0  0  0  0  0  0  0  0  0
    6.9798   -0.7810   -0.1027 H   0  0  0  0  0  0  0  0  0  0  0  0
    7.3145    1.2814    1.2067 H   0  0  0  0  0  0  0  0  0  0  0  0
    5.3656    2.6741    1.8513 H   0  0  0  0  0  0  0  0  0  0  0  0
    3.0989    2.0148    1.1857 H   0  0  0  0  0  0  0  0  0  0  0  0
    1.6732   -1.2045    1.4355 H   0  0  0  0  0  0  0  0  0  0  0  0
    1.4289    0.5477    1.5016 H   0  0  0  0  0  0  0  0  0  0  0  0
   -0.0113   -1.3558   -0.4317 H   0  0  0  0  0  0  0  0  0  0  0  0
   -0.6928   -0.6989    1.0459 H   0  0  0  0  0  0  0  0  0  0  0  0
   -3.0526    0.7661    2.4796 H   0  0  0  0  0  0  0  0  0  0  0  0
   -5.1046   -0.6334    2.5702 H   0  0  0  0  0  0  0  0  0  0  0  0
   -7.0311   -2.0486   -2.7765 H   0  0  0  0  0  0  0  0  0  0  0  0
   -4.9963   -0.6681   -2.9958 H   0  0  0  0  0  0  0  0  0  0  0  0
   -3.1411    0.6131   -1.8375 H   0  0  0  0  0  0  0  0  0  0  0  0
    1.0915    2.2466   -0.4616 H   0  0  0  0  0  0  0  0  0  0  0  0
    0.4360    1.9298   -2.0831 H   0  0  0  0  0  0  0  0  0  0  0  0
    2.7594    1.1082   -1.9292 H   0  0  0  0  0  0  0  0  0  0  0  0
    1.6414   -0.2237   -2.1863 H   0  0  0  0  0  0  0  0  0  0  0  0
  1  2  1  0
  2  3  2  0
  3  4  1  0
  4  5  2  0
  5  6  1  0
  6  7  2  0
  7  8  1  0
  8  9  1  0
  9 10  1  0
 10 11  1  0
 11 12  1  0
 12 13  2  0
 12 14  2  0
 12 15  1  0
 15 16  2  0
 16 17  1  0
 17 18  2  0
 18 19  1  0
 19 20  1  0
 20 21  2  0
 20 22  1  0
 22 23  2  0
 23 24  1  0
 24 25  2  0
 11 26  1  0
 26 27  1  0
  7  2  1  0
 27  8  1  0
 25 15  1  0
 24 18  1  0
  1 28  1  0
  1 29  1  0
  1 30  1  0
  3 31  1  0
  4 32  1  0
  5 33  1  0
  6 34  1  0
  9 35  1  0
  9 36  1  0
 10 37  1  0
 10 38  1  0
 16 39  1  0
 17 40  1  0
 22 41  1  0
 23 42  1  0
 25 43  1  0
 26 44  1  0
 26 45  1  0
 27 46  1  0
 27 47  1  0
M  END
$$$$
