
     RDKit          3D

 51 52  0  0  0  0  0  0  0  0999 V2000
    4.6592    1.4198   -0.2638 C   0  0  0  0  0  0  0  0  0  0  0  0
    4.1809    0.6460   -1.4719 C   0  0  0  0  0  0  0  0  0  0  0  0
    4.3545   -1.1305   -1.3265 S   0  0  0  0  0  6  0  0  0  0  0  0
    3.7222   -1.7077   -2.4944 O   0  0  0  0  0  0  0  0  0  0  0  0
    5.7326   -1.4237   -1.0000 O   0  0  0  0  0  0  0  0  0  0  0  0
    3.3989   -1.5145   -0.0041 N   0  0  0  0  0  0  0  0  0  0  0  0
    4.0007   -1.6588    1.3339 C   0  0  0  0  0  0  0  0  0  0  0  0
    3.0054   -2.2990    2.2949 C   0  0  0  0  0  0  0  0  0  0  0  0
    1.7141   -1.4876    2.4165 C   0  0  0  0  0  0  0  0  0  0  0  0
    1.3396   -0.7541    1.1176 C   0  0  0  0  0  0  0  0  0  0  0  0
   -0.1698   -0.6044    0.9359 C   0  0  0  0  0  0  0  0  0  0  0  0
   -0.9714   -1.3290    1.5145 O   0  0  0  0  0  0  0  0  0  0  0  0
   -0.4926    0.3973    0.0390 N   0  0  0  0  0  0  0  0  0  0  0  0
   -1.7741    0.8167   -0.3866 C   0  0  0  0  0  0  0  0  0  0  0  0
   -2.9672    0.2876    0.1136 C   0  0  0  0  0  0  0  0  0  0  0  0
   -4.1980    0.7486   -0.3696 C   0  0  0  0  0  0  0  0  0  0  0  0
   -5.4990    0.2187    0.1308 C   0  0  0  0  0  0  0  0  0  0  0  0
   -6.5172    0.8940    0.0196 O   0  0  0  0  0  0  0  0  0  0  0  0
   -5.4893   -1.0486    0.6743 N   0  0  0  0  0  0  0  0  0  0  0  0
   -6.7163   -1.6696    1.1039 C   0  0  0  0  0  0  0  0  0  0  0  0
   -4.2258    1.7627   -1.3349 C   0  0  0  0  0  0  0  0  0  0  0  0
   -3.0378    2.3039   -1.8335 C   0  0  0  0  0  0  0  0  0  0  0  0
   -1.8092    1.8341   -1.3666 C   0  0  0  0  0  0  0  0  0  0  0  0
   -0.5785    2.2889   -1.7851 O   0  0  0  0  0  0  0  0  0  0  0  0
   -0.5730    3.3007   -2.7864 C   0  0  0  0  0  0  0  0  0  0  0  0
    1.9267   -1.4620   -0.1040 C   0  0  0  0  0  0  0  0  0  0  0  0
    5.6776    1.1375    0.0174 H   0  0  0  0  0  0  0  0  0  0  0  0
    4.6483    2.4923   -0.4768 H   0  0  0  0  0  0  0  0  0  0  0  0
    4.0087    1.2531    0.5987 H   0  0  0  0  0  0  0  0  0  0  0  0
    3.1309    0.8629   -1.6874 H   0  0  0  0  0  0  0  0  0  0  0  0
    4.7681    0.9321   -2.3514 H   0  0  0  0  0  0  0  0  0  0  0  0
    4.8826   -2.3037    1.2747 H   0  0  0  0  0  0  0  0  0  0  0  0
    4.3135   -0.6840    1.7171 H   0  0  0  0  0  0  0  0  0  0  0  0
    2.7602   -3.3087    1.9384 H   0  0  0  0  0  0  0  0  0  0  0  0
    3.4595   -2.4189    3.2855 H   0  0  0  0  0  0  0  0  0  0  0  0
    0.9198   -2.1597    2.7600 H   0  0  0  0  0  0  0  0  0  0  0  0
    1.8301   -0.7394    3.2117 H   0  0  0  0  0  0  0  0  0  0  0  0
    1.7653    0.2571    1.1792 H   0  0  0  0  0  0  0  0  0  0  0  0
    0.2575    0.9222   -0.4008 H   0  0  0  0  0  0  0  0  0  0  0  0
   -2.9511   -0.4557    0.9012 H   0  0  0  0  0  0  0  0  0  0  0  0
   -4.6741   -1.6376    0.5637 H   0  0  0  0  0  0  0  0  0  0  0  0
   -7.2731   -0.9828    1.7464 H   0  0  0  0  0  0  0  0  0  0  0  0
   -7.3187   -1.9109    0.2253 H   0  0  0  0  0  0  0  0  0  0  0  0
   -6.4743   -2.5811    1.6550 H   0  0  0  0  0  0  0  0  0  0  0  0
   -5.1805    2.1366   -1.7023 H   0  0  0  0  0  0  0  0  0  0  0  0
   -3.1130    3.0876   -2.5802 H   0  0  0  0  0  0  0  0  0  0  0  0
   -1.0460    4.2180   -2.4211 H   0  0  0  0  0  0  0  0  0  0  0  0
   -1.0461    2.9478   -3.7086 H   0  0  0  0  0  0  0  0  0  0  0  0
    0.4712    3.5335   -3.0164 H   0  0  0  0  0  0  0  0  0  0  0  0
    1.5398   -2.4856   -0.1881 H   0  0  0  0  0  0  0  0  0  0  0  0
    1.6282   -0.9421   -1.0208 H   0  0  0  0  0  0  0  0  0  0  0  0
  1  2  1  0
  2  3  1  0
  3  4  2  0
  3  5  2  0
  3  6  1  0
  6  7  1  0
  7  8  1  0
  8  9  1  0
  9 10  1  0
 10 11  1  0
 11 12  2  0
 11 13  1  0
 13 14  1  0
 14 15  2  0
 15 16  1  0
 16 17  1  0
 17 18  2  0
 17 19  1  0
 19 20  1  0
 16 21  2  0
 21 22  1  0
 22 23  2  0
 23 24  1  0
 24 25  1  0
 10 26  1  0
 26  6  1  0
 23 14  1  0
  1 27  1  0
  1 28  1  0
  1 29  1  0
  2 30  1  0
  2 31  1  0
  7 32  1  0
  7 33  1  0
  8 34  1  0
  8 35  1  0
  9 36  1  0
  9 37  1  0
 10 38  1  0
 13 39  1  0
 15 40  1  0
 19 41  1  0
 20 42  1  0
 20 43  1  0
 20 44  1  0
 21 45  1  0
 22 46  1  0
 25 47  1  0
 25 48  1  0
 25 49  1  0
 26 50  1  0
 26 51  1  0
M  END
$$$$
