
     RDKit          3D

 54 57  0  0  0  0  0  0  0  0999 V2000
   -0.4182    0.4662   -1.9531 C   0  0  0  0  0  0  0  0  0  0  0  0
   -1.3099   -0.2073   -0.9504 C   0  0  0  0  0  0  0  0  0  0  0  0
   -2.5560    0.3187   -0.8304 N   0  0  0  0  0  0  0  0  0  0  0  0
   -3.4161   -0.2229    0.0504 C   0  0  0  0  0  0  0  0  0  0  0  0
   -4.7138    0.2999    0.1465 N   0  0  0  0  0  0  0  0  0  0  0  0
   -5.3589    0.0159    1.4307 C   0  0  0  0  0  0  0  0  0  0  0  0
   -6.8247    0.4493    1.3999 C   0  0  0  0  0  0  0  0  0  0  0  0
   -6.9689    1.9018    0.9625 C   0  0  0  0  0  0  0  0  0  0  0  0
   -6.2871    2.1140   -0.3836 C   0  0  0  0  0  0  0  0  0  0  0  0
   -4.8229    1.6755   -0.3449 C   0  0  0  0  0  0  0  0  0  0  0  0
   -3.0753   -1.2690    0.8193 N   0  0  0  0  0  0  0  0  0  0  0  0
   -1.8299   -1.7708    0.6814 C   0  0  0  0  0  0  0  0  0  0  0  0
   -0.8849   -1.2926   -0.2029 C   0  0  0  0  0  0  0  0  0  0  0  0
    0.4499   -1.9028   -0.3052 C   0  0  0  0  0  0  0  0  0  0  0  0
    0.5420   -3.1815   -0.6920 C   0  0  0  0  0  0  0  0  0  0  0  0
    1.8849   -3.7578   -0.7861 C   0  0  0  0  0  0  0  0  0  0  0  0
    2.0578   -4.9339   -1.0826 O   0  0  0  0  0  0  0  0  0  0  0  0
    2.9083   -2.9019   -0.5167 N   0  0  0  0  0  0  0  0  0  0  0  0
    2.7252   -1.6030   -0.1247 C   0  0  0  0  0  0  0  0  0  0  0  0
    3.8413   -0.8452    0.1547 N   0  0  0  0  0  0  0  0  0  0  0  0
    3.6857    0.4786    0.7875 C   0  0  0  0  0  0  0  0  0  0  0  0
    4.9821    0.9145    1.5032 C   0  0  0  0  0  0  0  0  0  0  0  0
    6.1944    0.9435    0.6575 N   0  0  0  0  0  0  0  0  0  0  0  0
    6.5778    2.3078    0.3034 C   0  0  0  0  0  0  0  0  0  0  0  0
    6.0284    0.1183   -0.5544 C   0  0  0  0  0  0  0  0  0  0  0  0
    5.1969   -1.1608   -0.3186 C   0  0  0  0  0  0  0  0  0  0  0  0
    1.5283   -1.1078   -0.0111 N   0  0  0  0  0  0  0  0  0  0  0  0
   -0.0091   -0.2613   -2.6613 H   0  0  0  0  0  0  0  0  0  0  0  0
   -0.9795    1.2081   -2.5314 H   0  0  0  0  0  0  0  0  0  0  0  0
    0.4001    0.9883   -1.4483 H   0  0  0  0  0  0  0  0  0  0  0  0
   -5.3469   -1.0573    1.6586 H   0  0  0  0  0  0  0  0  0  0  0  0
   -4.8371    0.5406    2.2421 H   0  0  0  0  0  0  0  0  0  0  0  0
   -7.3805   -0.1938    0.7059 H   0  0  0  0  0  0  0  0  0  0  0  0
   -7.2709    0.3134    2.3913 H   0  0  0  0  0  0  0  0  0  0  0  0
   -6.5213    2.5627    1.7147 H   0  0  0  0  0  0  0  0  0  0  0  0
   -8.0297    2.1655    0.8893 H   0  0  0  0  0  0  0  0  0  0  0  0
   -6.3497    3.1697   -0.6703 H   0  0  0  0  0  0  0  0  0  0  0  0
   -6.8195    1.5396   -1.1523 H   0  0  0  0  0  0  0  0  0  0  0  0
   -4.2519    2.3563    0.3003 H   0  0  0  0  0  0  0  0  0  0  0  0
   -4.4333    1.7697   -1.3662 H   0  0  0  0  0  0  0  0  0  0  0  0
   -1.6124   -2.6066    1.3414 H   0  0  0  0  0  0  0  0  0  0  0  0
   -0.2963   -3.8183   -0.9386 H   0  0  0  0  0  0  0  0  0  0  0  0
    3.8284   -3.3047   -0.5354 H   0  0  0  0  0  0  0  0  0  0  0  0
    2.8835    0.4498    1.5345 H   0  0  0  0  0  0  0  0  0  0  0  0
    3.4068    1.2163    0.0255 H   0  0  0  0  0  0  0  0  0  0  0  0
    4.8177    1.8778    2.0021 H   0  0  0  0  0  0  0  0  0  0  0  0
    5.1795    0.1953    2.3090 H   0  0  0  0  0  0  0  0  0  0  0  0
    6.8013    2.8895    1.2047 H   0  0  0  0  0  0  0  0  0  0  0  0
    5.7908    2.8261   -0.2560 H   0  0  0  0  0  0  0  0  0  0  0  0
    7.4905    2.3063   -0.3030 H   0  0  0  0  0  0  0  0  0  0  0  0
    5.5375    0.6978   -1.3488 H   0  0  0  0  0  0  0  0  0  0  0  0
    7.0196   -0.1651   -0.9271 H   0  0  0  0  0  0  0  0  0  0  0  0
    5.1523   -1.7055   -1.2687 H   0  0  0  0  0  0  0  0  0  0  0  0
    5.6936   -1.8070    0.4149 H   0  0  0  0  0  0  0  0  0  0  0  0
  1  2  1  0
  2  3  2  0
  3  4  1  0
  4  5  1  0
  5  6  1  0
  6  7  1  0
  7  8  1  0
  8  9  1  0
  9 10  1  0
  4 11  2  0
 11 12  1  0
 12 13  2  0
 13 14  1  0
 14 15  2  0
 15 16  1  0
 16 17  2  0
 16 18  1  0
 18 19  1  0
 19 20  1  0
 20 21  1  0
 21 22  1  0
 22 23  1  0
 23 24  1  0
 23 25  1  0
 25 26  1  0
 19 27  2  0
 13  2  1  0
 27 14  1  0
 10  5  1  0
 26 20  1  0
  1 28  1  0
  1 29  1  0
  1 30  1  0
  6 31  1  0
  6 32  1  0
  7 33  1  0
  7 34  1  0
  8 35  1  0
  8 36  1  0
  9 37  1  0
  9 38  1  0
 10 39  1  0
 10 40  1  0
 12 41  1  0
 15 42  1  0
 18 43  1  0
 21 44  1  0
 21 45  1  0
 22 46  1  0
 22 47  1  0
 24 48  1  0
 24 49  1  0
 24 50  1  0
 25 51  1  0
 25 52  1  0
 26 53  1  0
 26 54  1  0
M  END
$$$$
