
     RDKit          3D

 37 39  0  0  0  0  0  0  0  0999 V2000
    7.9204    0.2105   -0.1771 C   0  0  0  0  0  0  0  0  0  0  0  0
    6.4273    0.2334   -0.0963 C   0  0  0  0  0  0  0  0  0  0  0  0
    5.7472    1.1410    0.6165 C   0  0  0  0  0  0  0  0  0  0  0  0
    4.2731    1.0862    0.6379 C   0  0  0  0  0  0  0  0  0  0  0  0
    3.6278    1.9064    1.2834 O   0  0  0  0  0  0  0  0  0  0  0  0
    3.6158    0.0015   -0.1513 C   0  0  0  0  0  0  0  0  0  0  0  0
    2.2409   -0.0298   -0.1164 O   0  0  0  0  0  0  0  0  0  0  0  0
    1.5735   -1.0471   -0.8546 C   0  0  0  0  0  0  0  0  0  0  0  0
    0.0561   -0.9252   -0.6986 C   0  0  0  0  0  0  0  0  0  0  0  0
   -0.6863   -1.7210   -1.2668 O   0  0  0  0  0  0  0  0  0  0  0  0
   -0.3136    0.1263    0.1093 N   0  0  0  0  0  0  0  0  0  0  0  0
   -1.6130    0.4260    0.3898 C   0  0  0  0  0  0  0  0  0  0  0  0
   -2.7050   -0.1672   -0.0112 N   0  0  0  0  0  0  0  0  0  0  0  0
   -3.8174    0.4720    0.5172 C   0  0  0  0  0  0  0  0  0  0  0  0
   -5.1613   -0.0064    0.2133 C   0  0  0  0  0  0  0  0  0  0  0  0
   -6.3243    0.5911    0.7112 C   0  0  0  0  0  0  0  0  0  0  0  0
   -7.5758    0.0733    0.3737 C   0  0  0  0  0  0  0  0  0  0  0  0
   -7.6311   -1.0330   -0.4563 C   0  0  0  0  0  0  0  0  0  0  0  0
   -6.5395   -1.6416   -0.9596 N   0  0  0  0  0  0  0  0  0  0  0  0
   -5.3346   -1.1158   -0.6142 C   0  0  0  0  0  0  0  0  0  0  0  0
   -3.5181    1.5570    1.3223 C   0  0  0  0  0  0  0  0  0  0  0  0
   -1.8152    1.7734    1.4137 S   0  0  0  0  0  0  0  0  0  0  0  0
    4.4314   -0.8330   -0.8148 C   0  0  0  0  0  0  0  0  0  0  0  0
    5.8056   -0.7672   -0.8237 O   0  0  0  0  0  0  0  0  0  0  0  0
    8.3047   -0.7421    0.2012 H   0  0  0  0  0  0  0  0  0  0  0  0
    8.3763    1.0148    0.4095 H   0  0  0  0  0  0  0  0  0  0  0  0
    8.2444    0.3259   -1.2164 H   0  0  0  0  0  0  0  0  0  0  0  0
    6.2175    1.9287    1.1900 H   0  0  0  0  0  0  0  0  0  0  0  0
    1.8022   -0.9492   -1.9219 H   0  0  0  0  0  0  0  0  0  0  0  0
    1.8632   -2.0354   -0.4803 H   0  0  0  0  0  0  0  0  0  0  0  0
    0.4065    0.7103    0.5189 H   0  0  0  0  0  0  0  0  0  0  0  0
   -6.2855    1.4585    1.3621 H   0  0  0  0  0  0  0  0  0  0  0  0
   -8.4869    0.5243    0.7510 H   0  0  0  0  0  0  0  0  0  0  0  0
   -8.5816   -1.4713   -0.7465 H   0  0  0  0  0  0  0  0  0  0  0  0
   -4.4793   -1.6369   -1.0419 H   0  0  0  0  0  0  0  0  0  0  0  0
   -4.1773    2.2260    1.8542 H   0  0  0  0  0  0  0  0  0  0  0  0
    4.1121   -1.6643   -1.4275 H   0  0  0  0  0  0  0  0  0  0  0  0
  1  2  1  0
  2  3  2  0
  3  4  1  0
  4  5  2  0
  4  6  1  0
  6  7  1  0
  7  8  1  0
  8  9  1  0
  9 10  2  0
  9 11  1  0
 11 12  1  0
 12 13  2  0
 13 14  1  0
 14 15  1  0
 15 16  2  0
 16 17  1  0
 17 18  2  0
 18 19  1  0
 19 20  2  0
 14 21  2  0
 21 22  1  0
  6 23  2  0
 23 24  1  0
 24  2  1  0
 22 12  1  0
 20 15  1  0
  1 25  1  0
  1 26  1  0
  1 27  1  0
  3 28  1  0
  8 29  1  0
  8 30  1  0
 11 31  1  0
 16 32  1  0
 17 33  1  0
 18 34  1  0
 20 35  1  0
 21 36  1  0
 23 37  1  0
M  END
$$$$
