
     RDKit          3D

 34 35  0  0  0  0  0  0  0  0999 V2000
    5.7910    0.1087    0.7077 C   0  0  0  0  0  0  0  0  0  0  0  0
    5.5935    0.0124   -1.0918 S   0  0  0  0  0  0  0  0  0  0  0  0
    3.8147    0.0598   -1.2242 C   0  0  0  0  0  0  0  0  0  0  0  0
    3.1718   -0.9223   -1.9890 C   0  0  0  0  0  0  0  0  0  0  0  0
    1.7819   -0.9156   -2.1319 C   0  0  0  0  0  0  0  0  0  0  0  0
    1.0349    0.0835   -1.5051 C   0  0  0  0  0  0  0  0  0  0  0  0
   -0.7370    0.1228   -1.6747 S   0  0  0  0  0  6  0  0  0  0  0  0
   -1.1245   -0.9752   -2.5389 O   0  0  0  0  0  0  0  0  0  0  0  0
   -1.0883    1.4907   -1.9947 O   0  0  0  0  0  0  0  0  0  0  0  0
   -1.2556   -0.2437   -0.0784 N   0  0  0  0  0  0  0  0  0  0  0  0
   -0.9161   -1.6080    0.3928 C   0  0  0  0  0  0  0  0  0  0  0  0
   -2.6171    0.1405    0.1994 C   0  0  0  0  0  0  0  0  0  0  0  0
   -2.8466    0.9516    1.3128 C   0  0  0  0  0  0  0  0  0  0  0  0
   -4.1504    1.2976    1.6710 C   0  0  0  0  0  0  0  0  0  0  0  0
   -5.2278    0.8167    0.9275 C   0  0  0  0  0  0  0  0  0  0  0  0
   -5.0031   -0.0151   -0.1692 C   0  0  0  0  0  0  0  0  0  0  0  0
   -3.6994   -0.3626   -0.5284 C   0  0  0  0  0  0  0  0  0  0  0  0
    1.6641    1.0848   -0.7602 C   0  0  0  0  0  0  0  0  0  0  0  0
    3.0544    1.0706   -0.6238 C   0  0  0  0  0  0  0  0  0  0  0  0
    5.4908    1.0906    1.0821 H   0  0  0  0  0  0  0  0  0  0  0  0
    6.8441   -0.0453    0.9582 H   0  0  0  0  0  0  0  0  0  0  0  0
    5.2003   -0.6678    1.2017 H   0  0  0  0  0  0  0  0  0  0  0  0
    3.7514   -1.6996   -2.4835 H   0  0  0  0  0  0  0  0  0  0  0  0
    1.2994   -1.6824   -2.7337 H   0  0  0  0  0  0  0  0  0  0  0  0
   -1.4104   -2.3752   -0.2110 H   0  0  0  0  0  0  0  0  0  0  0  0
   -1.2299   -1.7351    1.4350 H   0  0  0  0  0  0  0  0  0  0  0  0
    0.1649   -1.7682    0.3700 H   0  0  0  0  0  0  0  0  0  0  0  0
   -2.0103    1.3251    1.8966 H   0  0  0  0  0  0  0  0  0  0  0  0
   -4.3254    1.9423    2.5283 H   0  0  0  0  0  0  0  0  0  0  0  0
   -6.2436    1.0887    1.2037 H   0  0  0  0  0  0  0  0  0  0  0  0
   -5.8431   -0.3944   -0.7457 H   0  0  0  0  0  0  0  0  0  0  0  0
   -3.5434   -1.0222   -1.3778 H   0  0  0  0  0  0  0  0  0  0  0  0
    1.0801    1.8784   -0.2984 H   0  0  0  0  0  0  0  0  0  0  0  0
    3.5346    1.8679   -0.0622 H   0  0  0  0  0  0  0  0  0  0  0  0
  1  2  1  0
  2  3  1  0
  3  4  2  0
  4  5  1  0
  5  6  2  0
  6  7  1  0
  7  8  2  0
  7  9  2  0
  7 10  1  0
 10 11  1  0
 10 12  1  0
 12 13  2  0
 13 14  1  0
 14 15  2  0
 15 16  1  0
 16 17  2  0
  6 18  1  0
 18 19  2  0
 19  3  1  0
 17 12  1  0
  1 20  1  0
  1 21  1  0
  1 22  1  0
  4 23  1  0
  5 24  1  0
 11 25  1  0
 11 26  1  0
 11 27  1  0
 13 28  1  0
 14 29  1  0
 15 30  1  0
 16 31  1  0
 17 32  1  0
 18 33  1  0
 19 34  1  0
M  END
$$$$
