
     RDKit          3D

 43 45  0  0  0  0  0  0  0  0999 V2000
   -5.8980    1.1979   -0.3630 C   0  0  0  0  0  0  0  0  0  0  0  0
   -5.1543    0.3932    0.6352 C   0  0  0  0  0  0  0  0  0  0  0  0
   -5.6765    0.1770    1.8478 N   0  0  0  0  0  0  0  0  0  0  0  0
   -4.7449   -0.5808    2.5292 O   0  0  0  0  0  0  0  0  0  0  0  0
   -3.6779   -0.8218    1.7246 C   0  0  0  0  0  0  0  0  0  0  0  0
   -2.5844   -1.6124    2.3194 C   0  0  0  0  0  0  0  0  0  0  0  0
   -3.8808   -0.2255    0.4974 C   0  0  0  0  0  0  0  0  0  0  0  0
   -2.9840   -0.2188   -0.6797 C   0  0  0  0  0  0  0  0  0  0  0  0
   -1.9289    0.7384   -0.4480 N   0  0  0  0  0  0  0  0  0  0  0  0
   -1.0621    1.0605   -1.4627 C   0  0  0  0  0  0  0  0  0  0  0  0
   -1.1924    0.6711   -2.6197 O   0  0  0  0  0  0  0  0  0  0  0  0
    0.1066    1.9251   -1.0449 C   0  0  0  0  0  0  0  0  0  0  0  0
    1.3472    1.1005   -0.6955 C   0  0  2  0  0  0  0  0  0  0  0  0
    1.7385    0.2018   -1.7604 N   0  0  0  0  0  0  0  0  0  0  0  0
    2.9733   -0.3539   -1.9114 C   0  0  0  0  0  0  0  0  0  0  0  0
    3.3025   -0.7754   -3.0179 O   0  0  0  0  0  0  0  0  0  0  0  0
    3.9050   -0.4566   -0.7589 C   0  0  0  0  0  0  0  0  0  0  0  0
    5.2633   -0.6242   -1.1003 C   0  0  0  0  0  0  0  0  0  0  0  0
    6.2287   -0.8831   -0.1288 C   0  0  0  0  0  0  0  0  0  0  0  0
    5.8464   -1.0029    1.1996 C   0  0  0  0  0  0  0  0  0  0  0  0
    4.5047   -0.8445    1.5520 C   0  0  0  0  0  0  0  0  0  0  0  0
    3.5224   -0.5428    0.5893 C   0  0  0  0  0  0  0  0  0  0  0  0
    2.2249   -0.3808    1.1086 N   0  0  0  0  0  0  0  0  0  0  0  0
    1.1668    0.3228    0.6086 C   0  0  0  0  0  0  0  0  0  0  0  0
    0.1464    0.4096    1.2992 O   0  0  0  0  0  0  0  0  0  0  0  0
   -5.2681    2.0059   -0.7501 H   0  0  0  0  0  0  0  0  0  0  0  0
   -6.2071    0.5672   -1.2022 H   0  0  0  0  0  0  0  0  0  0  0  0
   -6.7961    1.6501    0.0710 H   0  0  0  0  0  0  0  0  0  0  0  0
   -1.9941   -0.9901    2.9990 H   0  0  0  0  0  0  0  0  0  0  0  0
   -2.9828   -2.4611    2.8854 H   0  0  0  0  0  0  0  0  0  0  0  0
   -1.9145   -2.0065    1.5484 H   0  0  0  0  0  0  0  0  0  0  0  0
   -3.5180    0.0482   -1.5983 H   0  0  0  0  0  0  0  0  0  0  0  0
   -2.5275   -1.2028   -0.8372 H   0  0  0  0  0  0  0  0  0  0  0  0
   -1.5377    0.7660    0.4940 H   0  0  0  0  0  0  0  0  0  0  0  0
   -0.1908    2.5642   -0.2038 H   0  0  0  0  0  0  0  0  0  0  0  0
    0.3255    2.5977   -1.8843 H   0  0  0  0  0  0  0  0  0  0  0  0
    2.1737    1.8050   -0.5317 H   0  0  0  0  0  0  0  0  0  0  0  0
    1.2145    0.2280   -2.6334 H   0  0  0  0  0  0  0  0  0  0  0  0
    5.5723   -0.5777   -2.1450 H   0  0  0  0  0  0  0  0  0  0  0  0
    7.2695   -1.0144   -0.4163 H   0  0  0  0  0  0  0  0  0  0  0  0
    6.5889   -1.2220    1.9631 H   0  0  0  0  0  0  0  0  0  0  0  0
    4.2407   -0.9403    2.6037 H   0  0  0  0  0  0  0  0  0  0  0  0
    2.0589   -0.6918    2.0594 H   0  0  0  0  0  0  0  0  0  0  0  0
  1  2  1  0
  2  3  2  0
  3  4  1  0
  4  5  1  0
  5  6  1  0
  5  7  2  0
  7  8  1  0
  8  9  1  0
  9 10  1  0
 10 11  2  0
 10 12  1  0
 12 13  1  0
 13 14  1  0
 14 15  1  0
 15 16  2  0
 15 17  1  0
 17 18  2  0
 18 19  1  0
 19 20  2  0
 20 21  1  0
 21 22  2  0
 22 23  1  0
 23 24  1  0
 24 25  2  0
  7  2  1  0
 24 13  1  0
 22 17  1  0
  1 26  1  0
  1 27  1  0
  1 28  1  0
  6 29  1  0
  6 30  1  0
  6 31  1  0
  8 32  1  0
  8 33  1  0
  9 34  1  0
 12 35  1  0
 12 36  1  0
 13 37  1  1
 14 38  1  0
 18 39  1  0
 19 40  1  0
 20 41  1  0
 21 42  1  0
 23 43  1  0
M  END
$$$$
