
     RDKit          3D

 56 59  0  0  0  0  0  0  0  0999 V2000
    0.2661   -2.9474   -1.2871 C   0  0  0  0  0  0  0  0  0  0  0  0
   -0.5876   -3.3154   -0.0834 C   0  0  0  0  0  0  0  0  0  0  0  0
   -0.5099   -2.2911    1.0559 C   0  0  0  0  0  0  0  0  0  0  0  0
   -1.1081   -0.9997    0.7127 N   0  0  0  0  0  0  0  0  0  0  0  0
   -0.3277    0.0875    0.2942 C   0  0  0  0  0  0  0  0  0  0  0  0
    1.0557   -0.0416    0.3233 N   0  0  0  0  0  0  0  0  0  0  0  0
    1.7969    0.5903   -0.7940 C   0  0  0  0  0  0  0  0  0  0  0  0
    3.2551    0.1042   -0.8181 C   0  0  0  0  0  0  0  0  0  0  0  0
    3.9314    0.2523    0.4781 N   0  0  0  0  0  0  0  0  0  0  0  0
    5.3237    0.2573    0.6181 C   0  0  0  0  0  0  0  0  0  0  0  0
    5.8569    0.0619    1.7117 O   0  0  0  0  0  0  0  0  0  0  0  0
    6.1469    0.5421   -0.6522 C   0  0  0  0  0  0  0  0  0  0  0  0
    7.5495    0.5639   -0.4228 O   0  0  0  0  0  0  0  0  0  0  0  0
    8.2775    0.8741   -1.6008 C   0  0  0  0  0  0  0  0  0  0  0  0
    3.1509   -0.1829    1.6432 C   0  0  0  0  0  0  0  0  0  0  0  0
    1.6985    0.3124    1.6144 C   0  0  0  0  0  0  0  0  0  0  0  0
   -0.8432    1.2138   -0.1208 N   0  0  0  0  0  0  0  0  0  0  0  0
   -2.1921    1.2942   -0.1044 C   0  0  0  0  0  0  0  0  0  0  0  0
   -3.0025    2.7071   -0.6153 S   0  0  0  0  0  0  0  0  0  0  0  0
   -4.5257    2.0192   -0.2975 C   0  0  0  0  0  0  0  0  0  0  0  0
   -4.4365    0.7337    0.2041 C   0  0  0  0  0  0  0  0  0  0  0  0
   -3.0688    0.3174    0.3021 C   0  0  0  0  0  0  0  0  0  0  0  0
   -2.5099   -0.9437    0.7421 C   0  0  0  0  0  0  0  0  0  0  0  0
   -3.2226   -1.8806    1.0974 O   0  0  0  0  0  0  0  0  0  0  0  0
   -5.6556   -0.0724    0.5447 C   0  0  0  0  0  0  0  0  0  0  0  0
   -6.9162    0.8034    0.6331 C   0  0  0  0  0  0  0  0  0  0  0  0
   -6.9968    1.8103   -0.5229 C   0  0  0  0  0  0  0  0  0  0  0  0
   -5.7995    2.7729   -0.5210 C   0  0  0  0  0  0  0  0  0  0  0  0
    1.3119   -2.8039   -0.9985 H   0  0  0  0  0  0  0  0  0  0  0  0
   -0.0931   -2.0323   -1.7668 H   0  0  0  0  0  0  0  0  0  0  0  0
    0.2293   -3.7486   -2.0321 H   0  0  0  0  0  0  0  0  0  0  0  0
   -0.2469   -4.2846    0.2997 H   0  0  0  0  0  0  0  0  0  0  0  0
   -1.6246   -3.4507   -0.4099 H   0  0  0  0  0  0  0  0  0  0  0  0
    0.5315   -2.1758    1.3667 H   0  0  0  0  0  0  0  0  0  0  0  0
   -1.0455   -2.6945    1.9242 H   0  0  0  0  0  0  0  0  0  0  0  0
    1.7751    1.6826   -0.6890 H   0  0  0  0  0  0  0  0  0  0  0  0
    1.3242    0.3334   -1.7495 H   0  0  0  0  0  0  0  0  0  0  0  0
    3.7973    0.6473   -1.5966 H   0  0  0  0  0  0  0  0  0  0  0  0
    3.2925   -0.9624   -1.0717 H   0  0  0  0  0  0  0  0  0  0  0  0
    5.9272   -0.2429   -1.3837 H   0  0  0  0  0  0  0  0  0  0  0  0
    5.8360    1.5186   -1.0402 H   0  0  0  0  0  0  0  0  0  0  0  0
    8.0147    1.8731   -1.9614 H   0  0  0  0  0  0  0  0  0  0  0  0
    9.3440    0.8593   -1.3614 H   0  0  0  0  0  0  0  0  0  0  0  0
    8.0839    0.1302   -2.3795 H   0  0  0  0  0  0  0  0  0  0  0  0
    3.1721   -1.2800    1.6458 H   0  0  0  0  0  0  0  0  0  0  0  0
    3.6297    0.1582    2.5675 H   0  0  0  0  0  0  0  0  0  0  0  0
    1.1508   -0.1356    2.4514 H   0  0  0  0  0  0  0  0  0  0  0  0
    1.6712    1.4013    1.7498 H   0  0  0  0  0  0  0  0  0  0  0  0
   -5.7969   -0.8344   -0.2313 H   0  0  0  0  0  0  0  0  0  0  0  0
   -5.5178   -0.5928    1.4986 H   0  0  0  0  0  0  0  0  0  0  0  0
   -7.8056    0.1634    0.6356 H   0  0  0  0  0  0  0  0  0  0  0  0
   -6.9143    1.3513    1.5841 H   0  0  0  0  0  0  0  0  0  0  0  0
   -7.0282    1.2629   -1.4737 H   0  0  0  0  0  0  0  0  0  0  0  0
   -7.9271    2.3855   -0.4542 H   0  0  0  0  0  0  0  0  0  0  0  0
   -5.7732    3.3234   -1.4679 H   0  0  0  0  0  0  0  0  0  0  0  0
   -5.9245    3.5045    0.2865 H   0  0  0  0  0  0  0  0  0  0  0  0
  1  2  1  0
  2  3  1  0
  3  4  1  0
  4  5  1  0
  5  6  1  0
  6  7  1  0
  7  8  1  0
  8  9  1  0
  9 10  1  0
 10 11  2  0
 10 12  1  0
 12 13  1  0
 13 14  1  0
  9 15  1  0
 15 16  1  0
  5 17  2  0
 17 18  1  0
 18 19  1  0
 19 20  1  0
 20 21  2  0
 21 22  1  0
 22 23  1  0
 23 24  2  0
 21 25  1  0
 25 26  1  0
 26 27  1  0
 27 28  1  0
 23  4  1  0
 16  6  1  0
 22 18  2  0
 28 20  1  0
  1 29  1  0
  1 30  1  0
  1 31  1  0
  2 32  1  0
  2 33  1  0
  3 34  1  0
  3 35  1  0
  7 36  1  0
  7 37  1  0
  8 38  1  0
  8 39  1  0
 12 40  1  0
 12 41  1  0
 14 42  1  0
 14 43  1  0
 14 44  1  0
 15 45  1  0
 15 46  1  0
 16 47  1  0
 16 48  1  0
 25 49  1  0
 25 50  1  0
 26 51  1  0
 26 52  1  0
 27 53  1  0
 27 54  1  0
 28 55  1  0
 28 56  1  0
M  END
$$$$
