
     RDKit          3D

 42 44  0  0  0  0  0  0  0  0999 V2000
   -3.5111   -3.1723    0.1044 C   0  0  0  0  0  0  0  0  0  0  0  0
   -3.0222   -1.6502    0.8877 S   0  0  0  0  0  6  0  0  0  0  0  0
   -4.2063   -1.0033    1.4129 O   0  0  0  0  0  0  0  0  0  0  0  0
   -1.8949   -1.9620    1.7420 O   0  0  0  0  0  0  0  0  0  0  0  0
   -2.4780   -0.7550   -0.4602 N   0  0  0  0  0  0  0  0  0  0  0  0
   -3.5456   -0.3011   -1.4216 C   0  0  0  0  0  0  0  0  0  0  0  0
   -3.5386    1.2359   -1.4085 C   0  0  0  0  0  0  0  0  0  0  0  0
   -2.2388    1.5447   -0.7453 C   0  0  0  0  0  0  0  0  0  0  0  0
   -1.6271    2.7785   -0.6047 C   0  0  0  0  0  0  0  0  0  0  0  0
   -0.4264    2.8481    0.1095 C   0  0  0  0  0  0  0  0  0  0  0  0
    0.1524    1.6937    0.6587 C   0  0  0  0  0  0  0  0  0  0  0  0
    1.3670    1.7353    1.4074 N   0  0  0  0  0  0  0  0  0  0  0  0
    2.7448    2.4945    0.8153 S   0  0  0  0  0  6  0  0  0  0  0  0
    2.4201    3.8495    0.4197 O   0  0  0  0  0  0  0  0  0  0  0  0
    3.7778    2.2649    1.8065 O   0  0  0  0  0  0  0  0  0  0  0  0
    3.1704    1.5731   -0.6751 C   0  0  0  0  0  0  0  0  0  0  0  0
    3.1993    0.0821   -0.4400 C   0  0  0  0  0  0  0  0  0  0  0  0
    4.1650   -0.5083    0.3915 C   0  0  0  0  0  0  0  0  0  0  0  0
    4.1836   -1.8906    0.5872 C   0  0  0  0  0  0  0  0  0  0  0  0
    3.2480   -2.6884   -0.0579 C   0  0  0  0  0  0  0  0  0  0  0  0
    3.2681   -4.0144    0.1284 F   0  0  0  0  0  0  0  0  0  0  0  0
    2.2965   -2.1302   -0.9009 C   0  0  0  0  0  0  0  0  0  0  0  0
    2.2766   -0.7487   -1.0988 C   0  0  0  0  0  0  0  0  0  0  0  0
   -0.5007    0.4625    0.5416 C   0  0  0  0  0  0  0  0  0  0  0  0
   -1.6924    0.4079   -0.1608 C   0  0  0  0  0  0  0  0  0  0  0  0
   -3.8409   -3.8596    0.8869 H   0  0  0  0  0  0  0  0  0  0  0  0
   -2.6493   -3.5939   -0.4165 H   0  0  0  0  0  0  0  0  0  0  0  0
   -4.3339   -2.9827   -0.5858 H   0  0  0  0  0  0  0  0  0  0  0  0
   -4.5407   -0.6913   -1.1895 H   0  0  0  0  0  0  0  0  0  0  0  0
   -3.2734   -0.6765   -2.4159 H   0  0  0  0  0  0  0  0  0  0  0  0
   -4.3673    1.6214   -0.8053 H   0  0  0  0  0  0  0  0  0  0  0  0
   -3.6000    1.6432   -2.4217 H   0  0  0  0  0  0  0  0  0  0  0  0
   -2.0718    3.6792   -1.0175 H   0  0  0  0  0  0  0  0  0  0  0  0
    0.0315    3.8237    0.2544 H   0  0  0  0  0  0  0  0  0  0  0  0
    1.5960    0.9042    1.9559 H   0  0  0  0  0  0  0  0  0  0  0  0
    4.1532    1.9244   -1.0062 H   0  0  0  0  0  0  0  0  0  0  0  0
    2.4388    1.8475   -1.4422 H   0  0  0  0  0  0  0  0  0  0  0  0
    4.9143    0.1004    0.8972 H   0  0  0  0  0  0  0  0  0  0  0  0
    4.9244   -2.3483    1.2358 H   0  0  0  0  0  0  0  0  0  0  0  0
    1.5788   -2.7736   -1.3999 H   0  0  0  0  0  0  0  0  0  0  0  0
    1.5294   -0.3273   -1.7695 H   0  0  0  0  0  0  0  0  0  0  0  0
   -0.0766   -0.4369    0.9746 H   0  0  0  0  0  0  0  0  0  0  0  0
  1  2  1  0
  2  3  2  0
  2  4  2  0
  2  5  1  0
  5  6  1  0
  6  7  1  0
  7  8  1  0
  8  9  2  0
  9 10  1  0
 10 11  2  0
 11 12  1  0
 12 13  1  0
 13 14  2  0
 13 15  2  0
 13 16  1  0
 16 17  1  0
 17 18  2  0
 18 19  1  0
 19 20  2  0
 20 21  1  0
 20 22  1  0
 22 23  2  0
 11 24  1  0
 24 25  2  0
 25  5  1  0
 25  8  1  0
 23 17  1  0
  1 26  1  0
  1 27  1  0
  1 28  1  0
  6 29  1  0
  6 30  1  0
  7 31  1  0
  7 32  1  0
  9 33  1  0
 10 34  1  0
 12 35  1  0
 16 36  1  0
 16 37  1  0
 18 38  1  0
 19 39  1  0
 22 40  1  0
 23 41  1  0
 24 42  1  0
M  END
$$$$
