
     RDKit          3D

 55 55  0  0  0  0  0  0  0  0999 V2000
    8.1231   -0.7294    0.0898 C   0  0  0  0  0  0  0  0  0  0  0  0
    7.1883   -0.6778   -0.9800 O   0  0  0  0  0  0  0  0  0  0  0  0
    5.9100   -0.3072   -0.6672 C   0  0  0  0  0  0  0  0  0  0  0  0
    5.4384    0.0299    0.6016 C   0  0  0  0  0  0  0  0  0  0  0  0
    4.0966    0.3941    0.7866 C   0  0  0  0  0  0  0  0  0  0  0  0
    3.2176    0.4229   -0.2956 C   0  0  0  0  0  0  0  0  0  0  0  0
    1.8947    0.7614   -0.2525 O   0  0  0  0  0  0  0  0  0  0  0  0
    1.3363    1.0581    1.0283 C   0  0  0  0  0  0  0  0  0  0  0  0
   -0.1598    1.3857    0.8735 C   0  0  0  0  0  0  0  0  0  0  0  0
   -0.9478    0.1994    0.5219 N   0  0  0  0  0  0  0  0  0  0  0  0
   -2.3740    0.4754    0.3063 C   0  0  0  0  0  0  0  0  0  0  0  0
   -3.0996    0.6556    1.6502 C   0  0  0  0  0  0  0  0  0  0  0  0
   -4.5949    0.8708    1.4593 C   0  0  0  0  0  0  0  0  0  0  0  0
   -5.2206   -0.2730    0.6755 C   0  0  0  0  0  0  0  0  0  0  0  0
   -4.5376   -0.4728   -0.6859 C   0  0  0  0  0  0  0  0  0  0  0  0
   -5.2215   -1.6318   -1.4194 C   0  0  0  0  0  0  0  0  0  0  0  0
   -3.0071   -0.6860   -0.5170 C   0  0  0  0  0  0  0  0  0  0  0  0
   -2.3133   -0.8301   -1.8828 C   0  0  0  0  0  0  0  0  0  0  0  0
    3.6924    0.0866   -1.5635 C   0  0  0  0  0  0  0  0  0  0  0  0
    5.0286   -0.2762   -1.7481 C   0  0  0  0  0  0  0  0  0  0  0  0
    0.9965   -0.3851    1.4287 O   0  0  0  0  0  0  0  0  0  0  0  0
    0.7201   -0.1114    0.2772 C   0  0  0  0  0  0  0  0  0  0  0  0
    1.6644    0.0306   -0.6632 O   0  0  0  0  0  0  0  0  0  0  0  0
   -0.7201    0.1114   -0.2772 C   0  0  0  0  0  0  0  0  0  0  0  0
   -0.9965    0.3852   -1.4287 O   0  0  0  0  0  0  0  0  0  0  0  0
   -1.6645   -0.0306    0.6632 O   0  0  0  0  0  0  0  0  0  0  0  0
    8.2594    0.2581    0.5430 H   0  0  0  0  0  0  0  0  0  0  0  0
    9.0871   -1.0416   -0.3233 H   0  0  0  0  0  0  0  0  0  0  0  0
    7.8260   -1.4711    0.8386 H   0  0  0  0  0  0  0  0  0  0  0  0
    6.0865    0.0211    1.4714 H   0  0  0  0  0  0  0  0  0  0  0  0
    3.7743    0.6505    1.7900 H   0  0  0  0  0  0  0  0  0  0  0  0
    1.4608    0.2083    1.7112 H   0  0  0  0  0  0  0  0  0  0  0  0
    1.8365    1.9400    1.4469 H   0  0  0  0  0  0  0  0  0  0  0  0
   -0.5134    1.8069    1.8200 H   0  0  0  0  0  0  0  0  0  0  0  0
   -0.2748    2.1427    0.0890 H   0  0  0  0  0  0  0  0  0  0  0  0
   -0.8210   -0.5408    1.2095 H   0  0  0  0  0  0  0  0  0  0  0  0
   -2.4817    1.3958   -0.2840 H   0  0  0  0  0  0  0  0  0  0  0  0
   -2.9415   -0.2261    2.2853 H   0  0  0  0  0  0  0  0  0  0  0  0
   -2.6959    1.5154    2.1966 H   0  0  0  0  0  0  0  0  0  0  0  0
   -5.0819    0.9556    2.4374 H   0  0  0  0  0  0  0  0  0  0  0  0
   -4.7674    1.8177    0.9332 H   0  0  0  0  0  0  0  0  0  0  0  0
   -6.2877   -0.0639    0.5318 H   0  0  0  0  0  0  0  0  0  0  0  0
   -5.1555   -1.1968    1.2648 H   0  0  0  0  0  0  0  0  0  0  0  0
   -4.6984    0.4368   -1.2810 H   0  0  0  0  0  0  0  0  0  0  0  0
   -5.0089   -2.5896   -0.9329 H   0  0  0  0  0  0  0  0  0  0  0  0
   -4.8952   -1.6952   -2.4615 H   0  0  0  0  0  0  0  0  0  0  0  0
   -6.3084   -1.4950   -1.4350 H   0  0  0  0  0  0  0  0  0  0  0  0
   -2.8520   -1.6256    0.0330 H   0  0  0  0  0  0  0  0  0  0  0  0
   -2.4840    0.0545   -2.5055 H   0  0  0  0  0  0  0  0  0  0  0  0
   -1.2322   -0.9646   -1.7765 H   0  0  0  0  0  0  0  0  0  0  0  0
   -2.6788   -1.7065   -2.4259 H   0  0  0  0  0  0  0  0  0  0  0  0
    3.0163    0.1048   -2.4147 H   0  0  0  0  0  0  0  0  0  0  0  0
    5.3820   -0.5367   -2.7424 H   0  0  0  0  0  0  0  0  0  0  0  0
    2.5064   -0.1323   -0.1917 H   0  0  0  0  0  0  0  0  0  0  0  0
   -2.5065    0.1322    0.1917 H   0  0  0  0  0  0  0  0  0  0  0  0
  1  2  1  0
  2  3  1  0
  3  4  2  0
  4  5  1  0
  5  6  2  0
  6  7  1  0
  7  8  1  0
  8  9  1  0
  9 10  1  0
 10 11  1  0
 11 12  1  0
 12 13  1  0
 13 14  1  0
 14 15  1  0
 15 16  1  0
 15 17  1  0
 17 18  1  0
  6 19  1  0
 19 20  2  0
 21 22  2  0
 22 23  1  0
 22 24  1  0
 24 25  2  0
 24 26  1  0
 20  3  1  0
 17 11  1  0
  1 27  1  0
  1 28  1  0
  1 29  1  0
  4 30  1  0
  5 31  1  0
  8 32  1  0
  8 33  1  0
  9 34  1  0
  9 35  1  0
 10 36  1  0
 11 37  1  0
 12 38  1  0
 12 39  1  0
 13 40  1  0
 13 41  1  0
 14 42  1  0
 14 43  1  0
 15 44  1  0
 16 45  1  0
 16 46  1  0
 16 47  1  0
 17 48  1  0
 18 49  1  0
 18 50  1  0
 18 51  1  0
 19 52  1  0
 20 53  1  0
 23 54  1  0
 26 55  1  0
M  END
$$$$
