
     RDKit          3D

 36 39  0  0  0  0  0  0  0  0999 V2000
   -2.1743   -1.7861   -0.6842 O   0  0  0  0  0  0  0  0  0  0  0  0
   -1.8843   -0.6643   -0.2831 C   0  0  0  0  0  0  0  0  0  0  0  0
   -2.7675    0.3581    0.0106 N   0  0  0  0  0  0  0  0  0  0  0  0
   -4.1712    0.3539   -0.0788 C   0  0  0  0  0  0  0  0  0  0  0  0
   -4.9237   -0.7446   -0.5009 C   0  0  0  0  0  0  0  0  0  0  0  0
   -6.3201   -0.6670   -0.5619 C   0  0  0  0  0  0  0  0  0  0  0  0
   -6.9766    0.5083   -0.2018 C   0  0  0  0  0  0  0  0  0  0  0  0
   -6.2263    1.5996    0.2177 C   0  0  0  0  0  0  0  0  0  0  0  0
   -6.8208    2.7724    0.5808 O   0  0  0  0  0  0  0  0  0  0  0  0
   -4.8369    1.5314    0.2814 C   0  0  0  0  0  0  0  0  0  0  0  0
   -0.4834   -0.2827   -0.0651 C   0  0  0  0  0  0  0  0  0  0  0  0
    0.6679   -1.0851   -0.2669 C   0  0  0  0  0  0  0  0  0  0  0  0
    1.7298   -0.2810    0.0741 C   0  0  0  0  0  0  0  0  0  0  0  0
    3.1801   -0.4456    0.1088 C   0  0  0  0  0  0  0  0  0  0  0  0
    3.7648   -1.6773   -0.2751 C   0  0  0  0  0  0  0  0  0  0  0  0
    5.1527   -1.8662   -0.2526 C   0  0  0  0  0  0  0  0  0  0  0  0
    5.9352   -0.8113    0.1566 C   0  0  0  0  0  0  0  0  0  0  0  0
    5.3849    0.3895    0.5320 C   0  0  0  0  0  0  0  0  0  0  0  0
    4.0211    0.6035    0.5196 C   0  0  0  0  0  0  0  0  0  0  0  0
    6.3271    1.2983    0.9013 O   0  0  0  0  0  0  0  0  0  0  0  0
    7.5340    0.5300    0.7146 C   0  0  0  0  0  0  0  0  0  0  0  0
    7.2916   -0.8115    0.2415 O   0  0  0  0  0  0  0  0  0  0  0  0
    1.2418    0.9342    0.4583 O   0  0  0  0  0  0  0  0  0  0  0  0
   -0.1385    0.9405    0.3741 N   0  0  0  0  0  0  0  0  0  0  0  0
   -2.3267    1.2165    0.3312 H   0  0  0  0  0  0  0  0  0  0  0  0
   -4.4564   -1.6805   -0.7911 H   0  0  0  0  0  0  0  0  0  0  0  0
   -6.8916   -1.5309   -0.8926 H   0  0  0  0  0  0  0  0  0  0  0  0
   -8.0595    0.5517   -0.2549 H   0  0  0  0  0  0  0  0  0  0  0  0
   -7.7828    2.6747    0.4872 H   0  0  0  0  0  0  0  0  0  0  0  0
   -4.2871    2.4071    0.6148 H   0  0  0  0  0  0  0  0  0  0  0  0
    0.6936   -2.1072   -0.6142 H   0  0  0  0  0  0  0  0  0  0  0  0
    3.1407   -2.5082   -0.5978 H   0  0  0  0  0  0  0  0  0  0  0  0
    5.5971   -2.8104   -0.5470 H   0  0  0  0  0  0  0  0  0  0  0  0
    3.6286    1.5685    0.8244 H   0  0  0  0  0  0  0  0  0  0  0  0
    8.0654    0.4736    1.6716 H   0  0  0  0  0  0  0  0  0  0  0  0
    8.1709    1.0482   -0.0116 H   0  0  0  0  0  0  0  0  0  0  0  0
  1  2  2  0
  2  3  1  0
  3  4  1  0
  4  5  2  0
  5  6  1  0
  6  7  2  0
  7  8  1  0
  8  9  1  0
  8 10  2  0
  2 11  1  0
 11 12  1  0
 12 13  2  0
 13 14  1  0
 14 15  2  0
 15 16  1  0
 16 17  2  0
 17 18  1  0
 18 19  2  0
 18 20  1  0
 20 21  1  0
 21 22  1  0
 13 23  1  0
 23 24  1  0
 10  4  1  0
 24 11  2  0
 19 14  1  0
 22 17  1  0
  3 25  1  0
  5 26  1  0
  6 27  1  0
  7 28  1  0
  9 29  1  0
 10 30  1  0
 12 31  1  0
 15 32  1  0
 16 33  1  0
 19 34  1  0
 21 35  1  0
 21 36  1  0
M  END
$$$$
