
     RDKit          3D

 50 52  0  0  0  0  0  0  0  0999 V2000
    5.5606    1.3612    2.4528 C   0  0  0  0  0  0  0  0  0  0  0  0
    4.4095    0.8538    1.6349 C   0  0  0  0  0  0  0  0  0  0  0  0
    3.1001    1.2467    1.9323 C   0  0  0  0  0  0  0  0  0  0  0  0
    2.0336    0.7991    1.1492 C   0  0  0  0  0  0  0  0  0  0  0  0
    2.2624   -0.0554    0.0677 C   0  0  0  0  0  0  0  0  0  0  0  0
    1.1249   -0.4305   -0.7331 N   0  0  0  0  0  0  0  0  0  0  0  0
    0.8579    0.4788   -1.9128 C   0  0  0  0  0  0  0  0  0  0  0  0
    1.4706   -0.0144   -3.2193 C   0  0  0  0  0  0  0  0  0  0  0  0
   -0.6442    0.7674   -2.0609 C   0  0  0  0  0  0  0  0  0  0  0  0
   -1.1762    1.0422   -3.1331 O   0  0  0  0  0  0  0  0  0  0  0  0
   -1.3193    0.8128   -0.8508 N   0  0  0  0  0  0  0  0  0  0  0  0
   -2.7532    0.9864   -0.8042 C   0  0  0  0  0  0  0  0  0  0  0  0
   -3.5525   -0.2779   -1.1797 C   0  0  0  0  0  0  0  0  0  0  0  0
   -4.5090   -0.4450    0.0159 C   0  0  0  0  0  0  0  0  0  0  0  0
   -3.7029   -0.9531    1.2229 C   0  0  0  0  0  0  0  0  0  0  0  0
   -2.9057    0.2868    1.6495 C   0  0  0  0  0  0  0  0  0  0  0  0
   -3.3057    1.3384    0.5968 C   0  0  0  0  0  0  0  0  0  0  0  0
   -4.7892    1.0062    0.4097 C   0  0  0  0  0  0  0  0  0  0  0  0
    0.8448   -2.0957   -0.9678 S   0  0  0  0  0  6  0  0  0  0  0  0
    0.6889   -2.6835    0.7079 C   0  0  0  0  0  0  0  0  0  0  0  0
    2.0112   -2.7077   -1.5659 O   0  0  0  0  0  0  0  0  0  0  0  0
   -0.4577   -2.2324   -1.5834 O   0  0  0  0  0  0  0  0  0  0  0  0
    3.5702   -0.4100   -0.2623 C   0  0  0  0  0  0  0  0  0  0  0  0
    4.6374    0.0366    0.5219 C   0  0  0  0  0  0  0  0  0  0  0  0
    6.3811    0.6359    2.4638 H   0  0  0  0  0  0  0  0  0  0  0  0
    5.9274    2.3049    2.0376 H   0  0  0  0  0  0  0  0  0  0  0  0
    5.2584    1.5250    3.4925 H   0  0  0  0  0  0  0  0  0  0  0  0
    2.9034    1.9099    2.7722 H   0  0  0  0  0  0  0  0  0  0  0  0
    1.0259    1.1253    1.3912 H   0  0  0  0  0  0  0  0  0  0  0  0
    1.3055    1.4598   -1.6957 H   0  0  0  0  0  0  0  0  0  0  0  0
    2.5336   -0.2450   -3.1056 H   0  0  0  0  0  0  0  0  0  0  0  0
    0.9642   -0.9075   -3.5994 H   0  0  0  0  0  0  0  0  0  0  0  0
    1.3802    0.7528   -3.9967 H   0  0  0  0  0  0  0  0  0  0  0  0
   -0.8655    0.2855   -0.1168 H   0  0  0  0  0  0  0  0  0  0  0  0
   -3.0140    1.7884   -1.5077 H   0  0  0  0  0  0  0  0  0  0  0  0
   -4.1223   -0.0966   -2.0986 H   0  0  0  0  0  0  0  0  0  0  0  0
   -2.9300   -1.1632   -1.3367 H   0  0  0  0  0  0  0  0  0  0  0  0
   -5.3877   -1.0522   -0.2101 H   0  0  0  0  0  0  0  0  0  0  0  0
   -3.0501   -1.7941    0.9680 H   0  0  0  0  0  0  0  0  0  0  0  0
   -4.3687   -1.2701    2.0334 H   0  0  0  0  0  0  0  0  0  0  0  0
   -1.8316    0.0934    1.7014 H   0  0  0  0  0  0  0  0  0  0  0  0
   -3.2276    0.6081    2.6475 H   0  0  0  0  0  0  0  0  0  0  0  0
   -3.0902    2.3633    0.9069 H   0  0  0  0  0  0  0  0  0  0  0  0
   -5.2670    1.5860   -0.3871 H   0  0  0  0  0  0  0  0  0  0  0  0
   -5.3738    1.0986    1.3312 H   0  0  0  0  0  0  0  0  0  0  0  0
    1.6461   -2.5871    1.2219 H   0  0  0  0  0  0  0  0  0  0  0  0
    0.4031   -3.7371    0.6649 H   0  0  0  0  0  0  0  0  0  0  0  0
   -0.0927   -2.1119    1.2120 H   0  0  0  0  0  0  0  0  0  0  0  0
    3.7848   -1.0292   -1.1293 H   0  0  0  0  0  0  0  0  0  0  0  0
    5.6508   -0.2538    0.2512 H   0  0  0  0  0  0  0  0  0  0  0  0
  1  2  1  0
  2  3  2  0
  3  4  1  0
  4  5  2  0
  5  6  1  0
  6  7  1  0
  7  8  1  0
  7  9  1  0
  9 10  2  0
  9 11  1  0
 11 12  1  0
 12 13  1  0
 13 14  1  0
 14 15  1  0
 15 16  1  0
 16 17  1  0
 17 18  1  0
  6 19  1  0
 19 20  1  0
 19 21  2  0
 19 22  2  0
  5 23  1  0
 23 24  2  0
 24  2  1  0
 17 12  1  0
 18 14  1  0
  1 25  1  0
  1 26  1  0
  1 27  1  0
  3 28  1  0
  4 29  1  0
  7 30  1  0
  8 31  1  0
  8 32  1  0
  8 33  1  0
 11 34  1  0
 12 35  1  0
 13 36  1  0
 13 37  1  0
 14 38  1  0
 15 39  1  0
 15 40  1  0
 16 41  1  0
 16 42  1  0
 17 43  1  0
 18 44  1  0
 18 45  1  0
 20 46  1  0
 20 47  1  0
 20 48  1  0
 23 49  1  0
 24 50  1  0
M  END
$$$$
