
     RDKit          3D

 41 43  0  0  0  0  0  0  0  0999 V2000
    4.8756   -0.9336   -0.3756 C   0  0  0  0  0  0  0  0  0  0  0  0
    4.3949   -0.1902    0.7997 N   0  0  0  0  0  0  0  0  0  0  0  0
    3.4986   -0.9727    1.6661 C   0  0  0  0  0  0  0  0  0  0  0  0
    4.0330    1.4563    0.5853 S   0  0  0  0  0  6  0  0  0  0  0  0
    3.6514    2.0127    1.8646 O   0  0  0  0  0  0  0  0  0  0  0  0
    5.0854    2.0522   -0.2100 O   0  0  0  0  0  0  0  0  0  0  0  0
    2.5674    1.4132   -0.4317 C   0  0  0  0  0  0  0  0  0  0  0  0
    2.6874    1.5159   -1.8240 C   0  0  0  0  0  0  0  0  0  0  0  0
    1.5381    1.5280   -2.6172 C   0  0  0  0  0  0  0  0  0  0  0  0
    0.2827    1.4413   -2.0187 C   0  0  0  0  0  0  0  0  0  0  0  0
   -0.8046    1.4670   -2.8015 F   0  0  0  0  0  0  0  0  0  0  0  0
    0.1654    1.3342   -0.6341 C   0  0  0  0  0  0  0  0  0  0  0  0
   -1.1576    1.2812    0.0115 C   0  0  0  0  0  0  0  0  0  0  0  0
   -1.4342    2.2289    0.7418 O   0  0  0  0  0  0  0  0  0  0  0  0
   -1.9340    0.1537   -0.2009 N   0  0  0  0  0  0  0  0  0  0  0  0
   -1.5691   -1.0365   -0.9927 C   0  0  0  0  0  0  0  0  0  0  0  0
   -2.6539   -2.0968   -0.7663 C   0  0  0  0  0  0  0  0  0  0  0  0
   -3.6832   -1.3289   -0.0045 C   0  0  0  0  0  0  0  0  0  0  0  0
   -4.9345   -1.7727    0.3979 C   0  0  0  0  0  0  0  0  0  0  0  0
   -5.7360   -0.9072    1.1431 C   0  0  0  0  0  0  0  0  0  0  0  0
   -5.2773    0.3751    1.4777 C   0  0  0  0  0  0  0  0  0  0  0  0
   -4.0120    0.8096    1.0699 C   0  0  0  0  0  0  0  0  0  0  0  0
   -3.2243   -0.0525    0.3261 C   0  0  0  0  0  0  0  0  0  0  0  0
    1.3081    1.3486    0.1735 C   0  0  0  0  0  0  0  0  0  0  0  0
    5.3575   -1.8623   -0.0526 H   0  0  0  0  0  0  0  0  0  0  0  0
    5.6275   -0.3624   -0.9266 H   0  0  0  0  0  0  0  0  0  0  0  0
    4.0482   -1.1876   -1.0441 H   0  0  0  0  0  0  0  0  0  0  0  0
    4.0041   -1.8906    1.9840 H   0  0  0  0  0  0  0  0  0  0  0  0
    3.2426   -0.4222    2.5753 H   0  0  0  0  0  0  0  0  0  0  0  0
    2.5825   -1.2484    1.1363 H   0  0  0  0  0  0  0  0  0  0  0  0
    3.6660    1.6062   -2.2927 H   0  0  0  0  0  0  0  0  0  0  0  0
    1.6118    1.6221   -3.6972 H   0  0  0  0  0  0  0  0  0  0  0  0
   -0.5782   -1.3968   -0.6958 H   0  0  0  0  0  0  0  0  0  0  0  0
   -1.5305   -0.7535   -2.0499 H   0  0  0  0  0  0  0  0  0  0  0  0
   -2.2694   -2.9253   -0.1628 H   0  0  0  0  0  0  0  0  0  0  0  0
   -3.0417   -2.4801   -1.7146 H   0  0  0  0  0  0  0  0  0  0  0  0
   -5.2852   -2.7684    0.1467 H   0  0  0  0  0  0  0  0  0  0  0  0
   -6.7220   -1.2277    1.4709 H   0  0  0  0  0  0  0  0  0  0  0  0
   -5.9103    1.0405    2.0601 H   0  0  0  0  0  0  0  0  0  0  0  0
   -3.6776    1.8065    1.3357 H   0  0  0  0  0  0  0  0  0  0  0  0
    1.2076    1.3232    1.2573 H   0  0  0  0  0  0  0  0  0  0  0  0
  1  2  1  0
  2  3  1  0
  2  4  1  0
  4  5  2  0
  4  6  2  0
  4  7  1  0
  7  8  2  0
  8  9  1  0
  9 10  2  0
 10 11  1  0
 10 12  1  0
 12 13  1  0
 13 14  2  0
 13 15  1  0
 15 16  1  0
 16 17  1  0
 17 18  1  0
 18 19  2  0
 19 20  1  0
 20 21  2  0
 21 22  1  0
 22 23  2  0
 12 24  2  0
 24  7  1  0
 23 15  1  0
 23 18  1  0
  1 25  1  0
  1 26  1  0
  1 27  1  0
  3 28  1  0
  3 29  1  0
  3 30  1  0
  8 31  1  0
  9 32  1  0
 16 33  1  0
 16 34  1  0
 17 35  1  0
 17 36  1  0
 19 37  1  0
 20 38  1  0
 21 39  1  0
 22 40  1  0
 24 41  1  0
M  END
$$$$
