
     RDKit          3D

 42 43  0  0  0  0  0  0  0  0999 V2000
   -3.0322    3.4521    1.2863 C   0  0  0  0  0  0  0  0  0  0  0  0
   -3.5378    2.3075    0.6118 O   0  0  0  0  0  0  0  0  0  0  0  0
   -2.6550    1.2985    0.3277 C   0  0  0  0  0  0  0  0  0  0  0  0
   -1.3035    1.3012    0.6701 C   0  0  0  0  0  0  0  0  0  0  0  0
   -0.4825    0.2219    0.3123 C   0  0  0  0  0  0  0  0  0  0  0  0
    0.9550    0.2818    0.6945 C   0  0  0  0  0  0  0  0  0  0  0  0
    1.2795    0.8843    1.7107 O   0  0  0  0  0  0  0  0  0  0  0  0
    1.8210   -0.3393   -0.1752 N   0  0  0  0  0  0  0  0  0  0  0  0
    3.1474   -0.1810   -0.0023 N   0  0  0  0  0  0  0  0  0  0  0  0
    3.8857    0.7933   -0.6163 C   0  0  0  0  0  0  0  0  0  0  0  0
    3.2899    1.9179   -1.3803 C   0  0  0  0  0  0  0  0  0  0  0  0
    5.2116    0.5074   -0.3425 C   0  0  0  0  0  0  0  0  0  0  0  0
    5.2483   -0.6845    0.4256 C   0  0  0  0  0  0  0  0  0  0  0  0
    3.9442   -1.1082    0.6091 C   0  0  0  0  0  0  0  0  0  0  0  0
    3.4145   -2.2919    1.3310 C   0  0  0  0  0  0  0  0  0  0  0  0
   -1.0128   -0.8843   -0.3683 C   0  0  0  0  0  0  0  0  0  0  0  0
   -2.3636   -0.9042   -0.7179 C   0  0  0  0  0  0  0  0  0  0  0  0
   -2.9852   -1.9268   -1.3864 O   0  0  0  0  0  0  0  0  0  0  0  0
   -2.1870   -3.0191   -1.8195 C   0  0  0  0  0  0  0  0  0  0  0  0
   -3.1766    0.1865   -0.3574 C   0  0  0  0  0  0  0  0  0  0  0  0
   -4.4986    0.1923   -0.7471 O   0  0  0  0  0  0  0  0  0  0  0  0
   -5.3112   -0.3649    0.2849 C   0  0  0  0  0  0  0  0  0  0  0  0
   -3.8607    4.1544    1.4194 H   0  0  0  0  0  0  0  0  0  0  0  0
   -2.2628    3.9543    0.6906 H   0  0  0  0  0  0  0  0  0  0  0  0
   -2.6560    3.1895    2.2805 H   0  0  0  0  0  0  0  0  0  0  0  0
   -0.8558    2.1311    1.2095 H   0  0  0  0  0  0  0  0  0  0  0  0
    1.5534   -0.5994   -1.1119 H   0  0  0  0  0  0  0  0  0  0  0  0
    4.0698    2.5711   -1.7850 H   0  0  0  0  0  0  0  0  0  0  0  0
    2.6447    2.5249   -0.7372 H   0  0  0  0  0  0  0  0  0  0  0  0
    2.6958    1.5454   -2.2209 H   0  0  0  0  0  0  0  0  0  0  0  0
    6.0637    1.0936   -0.6631 H   0  0  0  0  0  0  0  0  0  0  0  0
    6.1331   -1.1815    0.8029 H   0  0  0  0  0  0  0  0  0  0  0  0
    2.8422   -2.9352    0.6549 H   0  0  0  0  0  0  0  0  0  0  0  0
    4.2298   -2.8892    1.7518 H   0  0  0  0  0  0  0  0  0  0  0  0
    2.7640   -1.9842    2.1560 H   0  0  0  0  0  0  0  0  0  0  0  0
   -0.3694   -1.7273   -0.5922 H   0  0  0  0  0  0  0  0  0  0  0  0
   -1.7644   -3.5595   -0.9662 H   0  0  0  0  0  0  0  0  0  0  0  0
   -2.8352   -3.7123   -2.3643 H   0  0  0  0  0  0  0  0  0  0  0  0
   -1.4014   -2.6877   -2.5065 H   0  0  0  0  0  0  0  0  0  0  0  0
   -5.0331   -1.4034    0.4955 H   0  0  0  0  0  0  0  0  0  0  0  0
   -6.3476   -0.3582   -0.0657 H   0  0  0  0  0  0  0  0  0  0  0  0
   -5.2613    0.2333    1.2011 H   0  0  0  0  0  0  0  0  0  0  0  0
  1  2  1  0
  2  3  1  0
  3  4  2  0
  4  5  1  0
  5  6  1  0
  6  7  2  0
  6  8  1  0
  8  9  1  0
  9 10  1  0
 10 11  1  0
 10 12  2  0
 12 13  1  0
 13 14  2  0
 14 15  1  0
  5 16  2  0
 16 17  1  0
 17 18  1  0
 18 19  1  0
 17 20  2  0
 20 21  1  0
 21 22  1  0
 20  3  1  0
 14  9  1  0
  1 23  1  0
  1 24  1  0
  1 25  1  0
  4 26  1  0
  8 27  1  0
 11 28  1  0
 11 29  1  0
 11 30  1  0
 12 31  1  0
 13 32  1  0
 15 33  1  0
 15 34  1  0
 15 35  1  0
 16 36  1  0
 19 37  1  0
 19 38  1  0
 19 39  1  0
 22 40  1  0
 22 41  1  0
 22 42  1  0
M  END
$$$$
