
     RDKit          3D

 37 38  0  0  0  0  0  0  0  0999 V2000
   -5.6938    0.9340   -0.8528 C   0  0  0  0  0  0  0  0  0  0  0  0
   -4.3733    0.3568   -0.8977 N   0  0  0  0  0  0  0  0  0  0  0  0
   -3.4028    0.7417    0.0054 C   0  0  0  0  0  0  0  0  0  0  0  0
   -3.6166    1.5234    0.9252 O   0  0  0  0  0  0  0  0  0  0  0  0
   -2.0449    0.1028   -0.2480 C   0  0  0  0  0  0  0  0  0  0  0  0
   -2.1200   -1.4228   -0.0823 C   0  0  0  0  0  0  0  0  0  0  0  0
   -0.8362   -2.0128    0.4981 C   0  0  0  0  0  0  0  0  0  0  0  0
    0.3937   -1.2802   -0.0167 C   0  0  0  0  0  0  0  0  0  0  0  0
    0.3707    0.1707    0.3429 N   0  0  0  0  0  0  0  0  0  0  0  0
    1.5754    0.6707    1.4701 S   0  0  0  0  0  6  0  0  0  0  0  0
    1.5255   -0.3022    2.5394 O   0  0  0  0  0  0  0  0  0  0  0  0
    1.4066    2.0877    1.7027 O   0  0  0  0  0  0  0  0  0  0  0  0
    3.0913    0.4933    0.5703 C   0  0  0  0  0  0  0  0  0  0  0  0
    3.0573    0.6453   -0.8263 C   0  0  0  0  0  0  0  0  0  0  0  0
    4.2228    0.4872   -1.5707 C   0  0  0  0  0  0  0  0  0  0  0  0
    4.1728    0.6540   -3.2810 Cl  0  0  0  0  0  0  0  0  0  0  0  0
    5.4265    0.1928   -0.9384 C   0  0  0  0  0  0  0  0  0  0  0  0
    5.4647    0.0697    0.4527 C   0  0  0  0  0  0  0  0  0  0  0  0
    4.2998    0.2251    1.2170 C   0  0  0  0  0  0  0  0  0  0  0  0
    4.4878    0.1248    2.9277 Cl  0  0  0  0  0  0  0  0  0  0  0  0
   -0.9904    0.7051    0.6817 C   0  0  0  0  0  0  0  0  0  0  0  0
   -5.6537    1.9336   -1.2935 H   0  0  0  0  0  0  0  0  0  0  0  0
   -6.0425    1.0050    0.1810 H   0  0  0  0  0  0  0  0  0  0  0  0
   -6.3697    0.3006   -1.4318 H   0  0  0  0  0  0  0  0  0  0  0  0
   -4.0911   -0.1185   -1.7449 H   0  0  0  0  0  0  0  0  0  0  0  0
   -1.7623    0.3358   -1.2842 H   0  0  0  0  0  0  0  0  0  0  0  0
   -2.9634   -1.7192    0.5537 H   0  0  0  0  0  0  0  0  0  0  0  0
   -2.3116   -1.8718   -1.0655 H   0  0  0  0  0  0  0  0  0  0  0  0
   -0.7757   -3.0772    0.2445 H   0  0  0  0  0  0  0  0  0  0  0  0
   -0.8692   -1.9525    1.5932 H   0  0  0  0  0  0  0  0  0  0  0  0
    1.2953   -1.7720    0.3630 H   0  0  0  0  0  0  0  0  0  0  0  0
    0.4437   -1.3487   -1.1102 H   0  0  0  0  0  0  0  0  0  0  0  0
    2.1287    0.8977   -1.3334 H   0  0  0  0  0  0  0  0  0  0  0  0
    6.3398    0.0719   -1.5161 H   0  0  0  0  0  0  0  0  0  0  0  0
    6.4160   -0.1382    0.9398 H   0  0  0  0  0  0  0  0  0  0  0  0
   -1.2288    0.4924    1.7315 H   0  0  0  0  0  0  0  0  0  0  0  0
   -0.9725    1.7941    0.5534 H   0  0  0  0  0  0  0  0  0  0  0  0
  1  2  1  0
  2  3  1  0
  3  4  2  0
  3  5  1  0
  5  6  1  0
  6  7  1  0
  7  8  1  0
  8  9  1  0
  9 10  1  0
 10 11  2  0
 10 12  2  0
 10 13  1  0
 13 14  2  0
 14 15  1  0
 15 16  1  0
 15 17  2  0
 17 18  1  0
 18 19  2  0
 19 20  1  0
  9 21  1  0
 21  5  1  0
 19 13  1  0
  1 22  1  0
  1 23  1  0
  1 24  1  0
  2 25  1  0
  5 26  1  0
  6 27  1  0
  6 28  1  0
  7 29  1  0
  7 30  1  0
  8 31  1  0
  8 32  1  0
 14 33  1  0
 17 34  1  0
 18 35  1  0
 21 36  1  0
 21 37  1  0
M  END
$$$$
