
     RDKit          3D

 31 32  0  0  0  0  0  0  0  0999 V2000
    3.9480    2.3090    0.6665 C   0  0  0  0  0  0  0  0  0  0  0  0
    3.7009    0.9333    0.9283 O   0  0  0  0  0  0  0  0  0  0  0  0
    2.7114    0.3315    0.2024 C   0  0  0  0  0  0  0  0  0  0  0  0
    1.9191    0.9417   -0.7707 C   0  0  0  0  0  0  0  0  0  0  0  0
    0.9339    0.2052   -1.4387 C   0  0  0  0  0  0  0  0  0  0  0  0
    0.7370   -1.1415   -1.1331 C   0  0  0  0  0  0  0  0  0  0  0  0
   -0.2987   -1.8552   -1.7950 N   0  0  0  0  0  0  0  0  0  0  0  0
   -1.6169   -2.4231   -0.9053 S   0  0  0  0  0  6  0  0  0  0  0  0
   -2.6195   -2.8078   -1.8770 O   0  0  0  0  0  0  0  0  0  0  0  0
   -1.1591   -3.3506    0.1063 O   0  0  0  0  0  0  0  0  0  0  0  0
   -2.2076   -0.9569   -0.0853 C   0  0  0  0  0  0  0  0  0  0  0  0
   -1.7965   -0.6787    1.2222 C   0  0  0  0  0  0  0  0  0  0  0  0
   -2.2643    0.4710    1.8614 C   0  0  0  0  0  0  0  0  0  0  0  0
   -3.1485    1.3231    1.1963 C   0  0  0  0  0  0  0  0  0  0  0  0
   -3.8406    3.0362    2.1490 I   0  0  0  0  0  0  0  0  0  0  0  0
   -3.5755    1.0329   -0.1017 C   0  0  0  0  0  0  0  0  0  0  0  0
   -3.1080   -0.1145   -0.7459 C   0  0  0  0  0  0  0  0  0  0  0  0
    1.5278   -1.7565   -0.1666 C   0  0  0  0  0  0  0  0  0  0  0  0
    2.5110   -1.0196    0.4973 C   0  0  0  0  0  0  0  0  0  0  0  0
    4.7610    2.6336    1.3230 H   0  0  0  0  0  0  0  0  0  0  0  0
    3.0686    2.9189    0.8986 H   0  0  0  0  0  0  0  0  0  0  0  0
    4.2737    2.4616   -0.3678 H   0  0  0  0  0  0  0  0  0  0  0  0
    2.0393    1.9880   -1.0315 H   0  0  0  0  0  0  0  0  0  0  0  0
    0.3208    0.7010   -2.1859 H   0  0  0  0  0  0  0  0  0  0  0  0
   -0.5685   -1.5537   -2.7293 H   0  0  0  0  0  0  0  0  0  0  0  0
   -1.1111   -1.3437    1.7441 H   0  0  0  0  0  0  0  0  0  0  0  0
   -1.9338    0.6863    2.8748 H   0  0  0  0  0  0  0  0  0  0  0  0
   -4.2745    1.6861   -0.6188 H   0  0  0  0  0  0  0  0  0  0  0  0
   -3.4521   -0.3450   -1.7517 H   0  0  0  0  0  0  0  0  0  0  0  0
    1.3955   -2.8082    0.0753 H   0  0  0  0  0  0  0  0  0  0  0  0
    3.1272   -1.5044    1.2512 H   0  0  0  0  0  0  0  0  0  0  0  0
  1  2  1  0
  2  3  1  0
  3  4  2  0
  4  5  1  0
  5  6  2  0
  6  7  1  0
  7  8  1  0
  8  9  2  0
  8 10  2  0
  8 11  1  0
 11 12  2  0
 12 13  1  0
 13 14  2  0
 14 15  1  0
 14 16  1  0
 16 17  2  0
  6 18  1  0
 18 19  2  0
 19  3  1  0
 17 11  1  0
  1 20  1  0
  1 21  1  0
  1 22  1  0
  4 23  1  0
  5 24  1  0
  7 25  1  0
 12 26  1  0
 13 27  1  0
 16 28  1  0
 17 29  1  0
 18 30  1  0
 19 31  1  0
M  END
$$$$
