
     RDKit          3D

 46 47  0  0  0  0  0  0  0  0999 V2000
   -2.1029   -0.0712   -2.1891 C   0  0  0  0  0  0  0  0  0  0  0  0
   -3.0869    0.0634   -1.0262 C   0  0  0  0  0  0  0  0  0  0  0  0
   -3.1992    1.5032   -0.5158 C   0  0  0  0  0  0  0  0  0  0  0  0
   -2.8476   -0.9603    0.0819 C   0  0  0  0  0  0  0  0  0  0  0  0
   -3.8623   -1.9338    0.2460 C   0  0  0  0  0  0  0  0  0  0  0  0
   -3.7839   -2.9191    1.2269 C   0  0  0  0  0  0  0  0  0  0  0  0
   -2.6857   -2.9550    2.0693 C   0  0  0  0  0  0  0  0  0  0  0  0
   -1.6685   -2.0090    1.9272 C   0  0  0  0  0  0  0  0  0  0  0  0
   -1.7239   -1.0082    0.9435 C   0  0  0  0  0  0  0  0  0  0  0  0
   -0.6815   -0.0608    0.8117 N   0  0  0  0  0  0  0  0  0  0  0  0
    0.4429    0.0823    1.5987 C   0  0  0  0  0  0  0  0  0  0  0  0
    0.7970   -0.5716    2.5705 O   0  0  0  0  0  0  0  0  0  0  0  0
    1.2846    1.2295    1.2191 C   0  0  0  0  0  0  0  0  0  0  0  0
    0.9143    2.4827    1.7292 C   0  0  0  0  0  0  0  0  0  0  0  0
    1.6779    3.6091    1.4278 C   0  0  0  0  0  0  0  0  0  0  0  0
    2.8082    3.4850    0.6219 C   0  0  0  0  0  0  0  0  0  0  0  0
    3.1786    2.2346    0.1190 C   0  0  0  0  0  0  0  0  0  0  0  0
    2.4286    1.0911    0.4219 C   0  0  0  0  0  0  0  0  0  0  0  0
    2.8467   -0.1380   -0.1986 N   0  0  0  0  0  0  0  0  0  0  0  0
    3.1991   -1.2757    0.6722 C   0  0  0  0  0  0  0  0  0  0  0  0
    2.1245   -0.5028   -1.6949 S   0  0  0  0  0  6  0  0  0  0  0  0
    3.5684   -0.8653   -2.6681 C   0  0  0  0  0  0  0  0  0  0  0  0
    1.5306    0.6987   -2.2462 O   0  0  0  0  0  0  0  0  0  0  0  0
    1.3566   -1.7212   -1.5632 O   0  0  0  0  0  0  0  0  0  0  0  0
   -2.4087    0.5696   -3.0235 H   0  0  0  0  0  0  0  0  0  0  0  0
   -1.0865    0.2159   -1.9178 H   0  0  0  0  0  0  0  0  0  0  0  0
   -2.0696   -1.1031   -2.5560 H   0  0  0  0  0  0  0  0  0  0  0  0
   -4.0723   -0.1526   -1.4638 H   0  0  0  0  0  0  0  0  0  0  0  0
   -3.9230    1.5699    0.3041 H   0  0  0  0  0  0  0  0  0  0  0  0
   -2.2518    1.9102   -0.1553 H   0  0  0  0  0  0  0  0  0  0  0  0
   -3.5458    2.1629   -1.3193 H   0  0  0  0  0  0  0  0  0  0  0  0
   -4.7373   -1.9303   -0.4020 H   0  0  0  0  0  0  0  0  0  0  0  0
   -4.5772   -3.6540    1.3292 H   0  0  0  0  0  0  0  0  0  0  0  0
   -2.6084   -3.7187    2.8383 H   0  0  0  0  0  0  0  0  0  0  0  0
   -0.8276   -2.0913    2.6078 H   0  0  0  0  0  0  0  0  0  0  0  0
   -0.7546    0.5811    0.0365 H   0  0  0  0  0  0  0  0  0  0  0  0
    0.0381    2.5768    2.3674 H   0  0  0  0  0  0  0  0  0  0  0  0
    1.3934    4.5820    1.8218 H   0  0  0  0  0  0  0  0  0  0  0  0
    3.4018    4.3635    0.3795 H   0  0  0  0  0  0  0  0  0  0  0  0
    4.0559    2.1575   -0.5180 H   0  0  0  0  0  0  0  0  0  0  0  0
    3.6333   -0.9228    1.6136 H   0  0  0  0  0  0  0  0  0  0  0  0
    3.9557   -1.8953    0.1818 H   0  0  0  0  0  0  0  0  0  0  0  0
    2.3295   -1.8969    0.9001 H   0  0  0  0  0  0  0  0  0  0  0  0
    4.2218    0.0091   -2.6726 H   0  0  0  0  0  0  0  0  0  0  0  0
    4.0776   -1.7350   -2.2501 H   0  0  0  0  0  0  0  0  0  0  0  0
    3.2399   -1.0860   -3.6863 H   0  0  0  0  0  0  0  0  0  0  0  0
  1  2  1  0
  2  3  1  0
  2  4  1  0
  4  5  2  0
  5  6  1  0
  6  7  2  0
  7  8  1  0
  8  9  2  0
  9 10  1  0
 10 11  1  0
 11 12  2  0
 11 13  1  0
 13 14  2  0
 14 15  1  0
 15 16  2  0
 16 17  1  0
 17 18  2  0
 18 19  1  0
 19 20  1  0
 19 21  1  0
 21 22  1  0
 21 23  2  0
 21 24  2  0
  9  4  1  0
 18 13  1  0
  1 25  1  0
  1 26  1  0
  1 27  1  0
  2 28  1  0
  3 29  1  0
  3 30  1  0
  3 31  1  0
  5 32  1  0
  6 33  1  0
  7 34  1  0
  8 35  1  0
 10 36  1  0
 14 37  1  0
 15 38  1  0
 16 39  1  0
 17 40  1  0
 20 41  1  0
 20 42  1  0
 20 43  1  0
 22 44  1  0
 22 45  1  0
 22 46  1  0
M  END
$$$$
