
     RDKit          3D

 37 38  0  0  0  0  0  0  0  0999 V2000
   -3.4730    1.8777    0.6410 C   0  0  0  0  0  0  0  0  0  0  0  0
   -2.4397    1.5693   -0.4471 C   0  0  0  0  0  0  0  0  0  0  0  0
   -2.9894    0.5904   -1.4948 C   0  0  0  0  0  0  0  0  0  0  0  0
   -3.0874   -0.8367   -0.9591 C   0  0  0  0  0  0  0  0  0  0  0  0
   -1.7637   -1.2968   -0.3547 C   0  0  0  0  0  0  0  0  0  0  0  0
   -1.3388   -0.3341    0.6890 N   0  0  0  0  0  0  0  0  0  0  0  0
   -0.2071   -0.8933    1.8304 S   0  0  0  0  0  6  0  0  0  0  0  0
    0.0353    0.1635    2.7905 O   0  0  0  0  0  0  0  0  0  0  0  0
   -0.6048   -2.2159    2.2629 O   0  0  0  0  0  0  0  0  0  0  0  0
    1.2832   -1.0750    0.8707 C   0  0  0  0  0  0  0  0  0  0  0  0
    1.5676   -2.2994    0.2577 C   0  0  0  0  0  0  0  0  0  0  0  0
    2.7406   -2.4402   -0.4820 C   0  0  0  0  0  0  0  0  0  0  0  0
    3.6316   -1.3693   -0.5869 C   0  0  0  0  0  0  0  0  0  0  0  0
    3.3653   -0.1555    0.0626 C   0  0  0  0  0  0  0  0  0  0  0  0
    4.3517    0.9484   -0.0710 C   0  0  0  0  0  0  0  0  0  0  0  0
    4.3623    1.9059    0.9049 N   0  0  0  0  0  0  0  0  0  0  0  0
    5.1445    0.9888   -1.0026 O   0  0  0  0  0  0  0  0  0  0  0  0
    2.1824   -0.0050    0.7928 C   0  0  0  0  0  0  0  0  0  0  0  0
   -1.1327    1.0363    0.1579 C   0  0  0  0  0  0  0  0  0  0  0  0
   -3.7368    0.9918    1.2268 H   0  0  0  0  0  0  0  0  0  0  0  0
   -4.3922    2.2755    0.1983 H   0  0  0  0  0  0  0  0  0  0  0  0
   -3.0855    2.6317    1.3346 H   0  0  0  0  0  0  0  0  0  0  0  0
   -2.2170    2.5169   -0.9546 H   0  0  0  0  0  0  0  0  0  0  0  0
   -3.9714    0.9216   -1.8521 H   0  0  0  0  0  0  0  0  0  0  0  0
   -2.3216    0.5939   -2.3659 H   0  0  0  0  0  0  0  0  0  0  0  0
   -3.8783   -0.8935   -0.2018 H   0  0  0  0  0  0  0  0  0  0  0  0
   -3.3767   -1.5144   -1.7703 H   0  0  0  0  0  0  0  0  0  0  0  0
   -1.9094   -2.2935    0.0732 H   0  0  0  0  0  0  0  0  0  0  0  0
   -0.9980   -1.3668   -1.1353 H   0  0  0  0  0  0  0  0  0  0  0  0
    0.8844   -3.1413    0.3511 H   0  0  0  0  0  0  0  0  0  0  0  0
    2.9679   -3.3843   -0.9725 H   0  0  0  0  0  0  0  0  0  0  0  0
    4.5459   -1.4863   -1.1676 H   0  0  0  0  0  0  0  0  0  0  0  0
    3.9447    1.7547    1.8128 H   0  0  0  0  0  0  0  0  0  0  0  0
    5.1274    2.5681    0.8598 H   0  0  0  0  0  0  0  0  0  0  0  0
    1.9445    0.9357    1.2816 H   0  0  0  0  0  0  0  0  0  0  0  0
   -0.8024    1.7152    0.9509 H   0  0  0  0  0  0  0  0  0  0  0  0
   -0.3532    1.0159   -0.6129 H   0  0  0  0  0  0  0  0  0  0  0  0
  1  2  1  0
  2  3  1  0
  3  4  1  0
  4  5  1  0
  5  6  1  0
  6  7  1  0
  7  8  2  0
  7  9  2  0
  7 10  1  0
 10 11  2  0
 11 12  1  0
 12 13  2  0
 13 14  1  0
 14 15  1  0
 15 16  1  0
 15 17  2  0
 14 18  2  0
  6 19  1  0
 19  2  1  0
 18 10  1  0
  1 20  1  0
  1 21  1  0
  1 22  1  0
  2 23  1  0
  3 24  1  0
  3 25  1  0
  4 26  1  0
  4 27  1  0
  5 28  1  0
  5 29  1  0
 11 30  1  0
 12 31  1  0
 13 32  1  0
 16 33  1  0
 16 34  1  0
 18 35  1  0
 19 36  1  0
 19 37  1  0
M  END
$$$$
