
     RDKit          3D

 54 55  0  0  0  0  0  0  0  0999 V2000
   -4.3756   -1.5360    3.0710 C   0  0  0  0  0  0  0  0  0  0  0  0
   -4.1803   -2.5828    1.9859 C   0  0  0  0  0  0  0  0  0  0  0  0
   -2.7806   -2.6744    1.6140 N   0  0  0  0  0  0  0  0  0  0  0  0
   -2.3784   -1.9404    0.5063 C   0  0  0  0  0  0  0  0  0  0  0  0
   -2.9873   -0.8055    0.1868 N   0  0  0  0  0  0  0  0  0  0  0  0
   -2.5254   -0.1603   -0.8731 C   0  0  0  0  0  0  0  0  0  0  0  0
   -3.0891    1.0261   -1.2990 N   0  0  0  0  0  0  0  0  0  0  0  0
   -3.7743    1.9525   -0.3931 C   0  0  0  0  0  0  0  0  0  0  0  0
   -2.9013    2.3213    0.8148 C   0  0  0  0  0  0  0  0  0  0  0  0
   -5.1337    1.3932    0.0503 C   0  0  0  0  0  0  0  0  0  0  0  0
   -4.0407    3.2398   -1.2032 C   0  0  0  0  0  0  0  0  0  0  0  0
   -1.5121   -0.5860   -1.6102 N   0  0  0  0  0  0  0  0  0  0  0  0
   -0.9826   -1.7354   -1.2138 C   0  0  0  0  0  0  0  0  0  0  0  0
    0.0879   -2.2693   -1.8997 O   0  0  0  0  0  0  0  0  0  0  0  0
    0.5252   -1.5038   -3.0274 C   0  0  0  0  0  0  0  0  0  0  0  0
    1.4537   -0.3660   -2.6023 C   0  0  0  0  0  0  0  0  0  0  0  0
    2.6210   -0.8666   -1.8911 N   0  0  0  0  0  0  0  0  0  0  0  0
    3.6676   -0.0038   -1.6203 C   0  0  0  0  0  0  0  0  0  0  0  0
    3.6920    1.1465   -2.0358 O   0  0  0  0  0  0  0  0  0  0  0  0
    4.6283   -0.6380   -0.8645 N   0  0  0  0  0  0  0  0  0  0  0  0
    5.8067   -0.0848   -0.3267 C   0  0  0  0  0  0  0  0  0  0  0  0
    6.1182    1.2752   -0.3707 C   0  0  0  0  0  0  0  0  0  0  0  0
    7.3066    1.7486    0.1951 C   0  0  0  0  0  0  0  0  0  0  0  0
    8.1907    0.8668    0.8123 C   0  0  0  0  0  0  0  0  0  0  0  0
    7.8870   -0.4906    0.8663 C   0  0  0  0  0  0  0  0  0  0  0  0
    6.6998   -0.9635    0.3007 C   0  0  0  0  0  0  0  0  0  0  0  0
   -1.3668   -2.4538   -0.1711 N   0  0  0  0  0  0  0  0  0  0  0  0
   -3.7781   -1.7771    3.9569 H   0  0  0  0  0  0  0  0  0  0  0  0
   -4.0767   -0.5396    2.7322 H   0  0  0  0  0  0  0  0  0  0  0  0
   -5.4270   -1.4925    3.3713 H   0  0  0  0  0  0  0  0  0  0  0  0
   -4.8330   -2.3855    1.1266 H   0  0  0  0  0  0  0  0  0  0  0  0
   -4.4902   -3.5541    2.3891 H   0  0  0  0  0  0  0  0  0  0  0  0
   -2.4227   -3.6144    1.4812 H   0  0  0  0  0  0  0  0  0  0  0  0
   -2.4201    1.4548   -1.9299 H   0  0  0  0  0  0  0  0  0  0  0  0
   -1.9170    2.6832    0.4958 H   0  0  0  0  0  0  0  0  0  0  0  0
   -3.3712    3.1105    1.4128 H   0  0  0  0  0  0  0  0  0  0  0  0
   -2.7366    1.4693    1.4819 H   0  0  0  0  0  0  0  0  0  0  0  0
   -5.7088    2.1481    0.5989 H   0  0  0  0  0  0  0  0  0  0  0  0
   -5.0355    0.5287    0.7115 H   0  0  0  0  0  0  0  0  0  0  0  0
   -5.7318    1.0781   -0.8126 H   0  0  0  0  0  0  0  0  0  0  0  0
   -4.5691    3.9886   -0.6024 H   0  0  0  0  0  0  0  0  0  0  0  0
   -4.6492    3.0301   -2.0909 H   0  0  0  0  0  0  0  0  0  0  0  0
   -3.1037    3.6911   -1.5508 H   0  0  0  0  0  0  0  0  0  0  0  0
   -0.3153   -1.1425   -3.6328 H   0  0  0  0  0  0  0  0  0  0  0  0
    1.0838   -2.1973   -3.6674 H   0  0  0  0  0  0  0  0  0  0  0  0
    0.9514    0.3377   -1.9307 H   0  0  0  0  0  0  0  0  0  0  0  0
    1.7904    0.1900   -3.4842 H   0  0  0  0  0  0  0  0  0  0  0  0
    2.4128   -1.5124   -1.1413 H   0  0  0  0  0  0  0  0  0  0  0  0
    4.5285   -1.6393   -0.7983 H   0  0  0  0  0  0  0  0  0  0  0  0
    5.4535    1.9963   -0.8363 H   0  0  0  0  0  0  0  0  0  0  0  0
    7.5370    2.8100    0.1514 H   0  0  0  0  0  0  0  0  0  0  0  0
    9.1130    1.2387    1.2506 H   0  0  0  0  0  0  0  0  0  0  0  0
    8.5730   -1.1821    1.3483 H   0  0  0  0  0  0  0  0  0  0  0  0
    6.4860   -2.0274    0.3571 H   0  0  0  0  0  0  0  0  0  0  0  0
  1  2  1  0
  2  3  1  0
  3  4  1  0
  4  5  2  0
  5  6  1  0
  6  7  1  0
  7  8  1  0
  8  9  1  0
  8 10  1  0
  8 11  1  0
  6 12  2  0
 12 13  1  0
 13 14  1  0
 14 15  1  0
 15 16  1  0
 16 17  1  0
 17 18  1  0
 18 19  2  0
 18 20  1  0
 20 21  1  0
 21 22  2  0
 22 23  1  0
 23 24  2  0
 24 25  1  0
 25 26  2  0
 13 27  2  0
 27  4  1  0
 26 21  1  0
  1 28  1  0
  1 29  1  0
  1 30  1  0
  2 31  1  0
  2 32  1  0
  3 33  1  0
  7 34  1  0
  9 35  1  0
  9 36  1  0
  9 37  1  0
 10 38  1  0
 10 39  1  0
 10 40  1  0
 11 41  1  0
 11 42  1  0
 11 43  1  0
 15 44  1  0
 15 45  1  0
 16 46  1  0
 16 47  1  0
 17 48  1  0
 20 49  1  0
 22 50  1  0
 23 51  1  0
 24 52  1  0
 25 53  1  0
 26 54  1  0
M  END
$$$$
