
     RDKit          3D

 55 58  0  0  0  0  0  0  0  0999 V2000
    9.2101    1.7178    2.3347 C   0  0  0  0  0  0  0  0  0  0  0  0
    7.8171    1.7343    2.0533 O   0  0  0  0  0  0  0  0  0  0  0  0
    7.2993    0.6455    1.4049 C   0  0  0  0  0  0  0  0  0  0  0  0
    8.0219   -0.4678    0.9770 C   0  0  0  0  0  0  0  0  0  0  0  0
    7.3699   -1.5087    0.3147 C   0  0  0  0  0  0  0  0  0  0  0  0
    5.9952   -1.4403    0.0823 C   0  0  0  0  0  0  0  0  0  0  0  0
    5.2547   -0.3343    0.5152 C   0  0  0  0  0  0  0  0  0  0  0  0
    3.8730   -0.3335    0.2299 N   0  0  0  0  0  0  0  0  0  0  0  0
    2.9151    0.5316    0.7111 C   0  0  0  0  0  0  0  0  0  0  0  0
    3.1010    1.3709    1.5873 O   0  0  0  0  0  0  0  0  0  0  0  0
    1.6637    0.3715    0.1236 N   0  0  0  0  0  0  0  0  0  0  0  0
    1.4127   -0.3510   -1.1307 C   0  0  0  0  0  0  0  0  0  0  0  0
    0.1084    0.0693   -1.8327 C   0  0  0  0  0  0  0  0  0  0  0  0
   -1.0268   -0.0351   -0.9059 N   0  0  0  0  0  0  0  0  0  0  0  0
   -2.2980    0.0598   -1.4679 C   0  0  0  0  0  0  0  0  0  0  0  0
   -3.4345   -0.1285   -0.7010 C   0  0  0  0  0  0  0  0  0  0  0  0
   -4.6673   -0.0328   -1.3291 C   0  0  0  0  0  0  0  0  0  0  0  0
   -5.8527   -0.2157   -0.5412 N   0  0  0  0  0  0  0  0  0  0  0  0
   -5.7610   -0.4633    0.7995 N   0  0  0  0  0  0  0  0  0  0  0  0
   -7.0206   -0.5808    1.2247 C   0  0  0  0  0  0  0  0  0  0  0  0
   -7.3045   -0.8534    2.6540 C   0  0  0  0  0  0  0  0  0  0  0  0
   -7.9421   -0.4062    0.1781 C   0  0  0  0  0  0  0  0  0  0  0  0
   -7.1818   -0.1731   -0.9491 C   0  0  0  0  0  0  0  0  0  0  0  0
   -7.6318    0.0784   -2.3414 C   0  0  0  0  0  0  0  0  0  0  0  0
   -4.7844    0.2245   -2.6489 N   0  0  0  0  0  0  0  0  0  0  0  0
   -3.6344    0.3721   -3.3107 C   0  0  0  0  0  0  0  0  0  0  0  0
   -2.4037    0.2973   -2.7877 N   0  0  0  0  0  0  0  0  0  0  0  0
   -0.8184    0.4876    0.4594 C   0  0  0  0  0  0  0  0  0  0  0  0
    0.5498    1.1740    0.6327 C   0  0  0  0  0  0  0  0  0  0  0  0
    5.9189    0.7061    1.1694 C   0  0  0  0  0  0  0  0  0  0  0  0
    9.7988    1.6876    1.4118 H   0  0  0  0  0  0  0  0  0  0  0  0
    9.4698    0.8857    2.9975 H   0  0  0  0  0  0  0  0  0  0  0  0
    9.4571    2.6478    2.8557 H   0  0  0  0  0  0  0  0  0  0  0  0
    9.0908   -0.5544    1.1397 H   0  0  0  0  0  0  0  0  0  0  0  0
    7.9346   -2.3745   -0.0218 H   0  0  0  0  0  0  0  0  0  0  0  0
    5.5141   -2.2644   -0.4378 H   0  0  0  0  0  0  0  0  0  0  0  0
    3.5185   -1.1589   -0.2240 H   0  0  0  0  0  0  0  0  0  0  0  0
    2.2588   -0.2027   -1.8106 H   0  0  0  0  0  0  0  0  0  0  0  0
    1.3661   -1.4162   -0.8739 H   0  0  0  0  0  0  0  0  0  0  0  0
   -0.0291   -0.5890   -2.6997 H   0  0  0  0  0  0  0  0  0  0  0  0
    0.2000    1.1006   -2.1976 H   0  0  0  0  0  0  0  0  0  0  0  0
   -3.3604   -0.3644    0.3532 H   0  0  0  0  0  0  0  0  0  0  0  0
   -7.1833    0.0598    3.2455 H   0  0  0  0  0  0  0  0  0  0  0  0
   -8.3292   -1.2146    2.7891 H   0  0  0  0  0  0  0  0  0  0  0  0
   -6.6247   -1.6154    3.0495 H   0  0  0  0  0  0  0  0  0  0  0  0
   -9.0215   -0.4441    0.2324 H   0  0  0  0  0  0  0  0  0  0  0  0
   -7.3081    1.0647   -2.6880 H   0  0  0  0  0  0  0  0  0  0  0  0
   -7.2544   -0.6903   -3.0228 H   0  0  0  0  0  0  0  0  0  0  0  0
   -8.7256    0.0563   -2.4016 H   0  0  0  0  0  0  0  0  0  0  0  0
   -3.7006    0.5715   -4.3747 H   0  0  0  0  0  0  0  0  0  0  0  0
   -1.5888    1.2169    0.7387 H   0  0  0  0  0  0  0  0  0  0  0  0
   -0.8868   -0.3561    1.1565 H   0  0  0  0  0  0  0  0  0  0  0  0
    0.7034    1.4120    1.6910 H   0  0  0  0  0  0  0  0  0  0  0  0
    0.5655    2.1225    0.0814 H   0  0  0  0  0  0  0  0  0  0  0  0
    5.3863    1.5913    1.5050 H   0  0  0  0  0  0  0  0  0  0  0  0
  1  2  1  0
  2  3  1  0
  3  4  2  0
  4  5  1  0
  5  6  2  0
  6  7  1  0
  7  8  1  0
  8  9  1  0
  9 10  2  0
  9 11  1  0
 11 12  1  0
 12 13  1  0
 13 14  1  0
 14 15  1  0
 15 16  2  0
 16 17  1  0
 17 18  1  0
 18 19  1  0
 19 20  2  0
 20 21  1  0
 20 22  1  0
 22 23  2  0
 23 24  1  0
 17 25  2  0
 25 26  1  0
 26 27  2  0
 14 28  1  0
 28 29  1  0
  7 30  2  0
 30  3  1  0
 29 11  1  0
 27 15  1  0
 23 18  1  0
  1 31  1  0
  1 32  1  0
  1 33  1  0
  4 34  1  0
  5 35  1  0
  6 36  1  0
  8 37  1  0
 12 38  1  0
 12 39  1  0
 13 40  1  0
 13 41  1  0
 16 42  1  0
 21 43  1  0
 21 44  1  0
 21 45  1  0
 22 46  1  0
 24 47  1  0
 24 48  1  0
 24 49  1  0
 26 50  1  0
 28 51  1  0
 28 52  1  0
 29 53  1  0
 29 54  1  0
 30 55  1  0
M  END
$$$$
