
     RDKit          3D

 60 63  0  0  0  0  0  0  0  0999 V2000
   -6.6483   -0.4728   -2.6870 C   0  0  0  0  0  0  0  0  0  0  0  0
   -7.0093    0.0186   -1.4003 O   0  0  0  0  0  0  0  0  0  0  0  0
   -6.0130    0.0377   -0.4589 C   0  0  0  0  0  0  0  0  0  0  0  0
   -4.6502    0.1057   -0.7593 C   0  0  0  0  0  0  0  0  0  0  0  0
   -3.6859    0.1326    0.2640 C   0  0  0  0  0  0  0  0  0  0  0  0
   -2.2519    0.1929   -0.0892 C   0  0  0  0  0  0  0  0  0  0  0  0
   -1.3945    0.9895    0.5672 C   0  0  0  0  0  0  0  0  0  0  0  0
    0.0198    1.0164    0.1603 C   0  0  0  0  0  0  0  0  0  0  0  0
    0.8257    1.7408    0.7299 O   0  0  0  0  0  0  0  0  0  0  0  0
    0.3988    0.1422   -0.9594 C   0  0  0  0  0  0  0  0  0  0  0  0
    1.7257    0.0900   -1.4050 C   0  0  0  0  0  0  0  0  0  0  0  0
    2.0589   -0.7457   -2.4702 C   0  0  0  0  0  0  0  0  0  0  0  0
    3.3048   -0.9123   -3.0074 O   0  0  0  0  0  0  0  0  0  0  0  0
    4.4144   -0.3661   -2.3067 C   0  0  0  0  0  0  0  0  0  0  0  0
    4.7854   -1.0452   -0.9743 C   0  0  0  0  0  0  0  0  0  0  0  0
    4.2515   -2.0976   -0.6172 O   0  0  0  0  0  0  0  0  0  0  0  0
    5.7441   -0.4084   -0.1868 N   0  0  0  0  0  0  0  0  0  0  0  0
    6.0273   -0.9647    1.1378 C   0  0  0  0  0  0  0  0  0  0  0  0
    6.5855    0.0872    2.0881 C   0  0  0  0  0  0  0  0  0  0  0  0
    7.8729    0.7064    1.5478 C   0  0  0  0  0  0  0  0  0  0  0  0
    7.9111    0.7725    0.0195 C   0  0  0  0  0  0  0  0  0  0  0  0
    6.5177    0.7636   -0.6030 C   0  0  0  0  0  0  0  0  0  0  0  0
    1.0578   -1.5044   -3.0877 C   0  0  0  0  0  0  0  0  0  0  0  0
   -0.2635   -1.4505   -2.6384 C   0  0  0  0  0  0  0  0  0  0  0  0
   -0.5906   -0.6258   -1.5666 C   0  0  0  0  0  0  0  0  0  0  0  0
   -1.9000   -0.6152   -1.1602 O   0  0  0  0  0  0  0  0  0  0  0  0
   -4.1080    0.0752    1.6048 C   0  0  0  0  0  0  0  0  0  0  0  0
   -5.4679    0.0157    1.9261 C   0  0  0  0  0  0  0  0  0  0  0  0
   -5.9675   -0.0365    3.2029 O   0  0  0  0  0  0  0  0  0  0  0  0
   -5.0505   -0.3112    4.2519 C   0  0  0  0  0  0  0  0  0  0  0  0
   -6.4131    0.0252    0.8863 C   0  0  0  0  0  0  0  0  0  0  0  0
   -7.7530   -0.0762    1.1893 O   0  0  0  0  0  0  0  0  0  0  0  0
   -8.3124    1.2278    1.3460 C   0  0  0  0  0  0  0  0  0  0  0  0
   -7.5718   -0.6655   -3.2399 H   0  0  0  0  0  0  0  0  0  0  0  0
   -6.0771    0.2792   -3.2440 H   0  0  0  0  0  0  0  0  0  0  0  0
   -6.0961   -1.4190   -2.6205 H   0  0  0  0  0  0  0  0  0  0  0  0
   -4.3166    0.1555   -1.7915 H   0  0  0  0  0  0  0  0  0  0  0  0
   -1.6735    1.6409    1.3858 H   0  0  0  0  0  0  0  0  0  0  0  0
    2.4630    0.7036   -0.8997 H   0  0  0  0  0  0  0  0  0  0  0  0
    4.2839    0.7123   -2.1724 H   0  0  0  0  0  0  0  0  0  0  0  0
    5.2755   -0.5033   -2.9694 H   0  0  0  0  0  0  0  0  0  0  0  0
    5.1133   -1.3962    1.5606 H   0  0  0  0  0  0  0  0  0  0  0  0
    6.7474   -1.7812    1.0020 H   0  0  0  0  0  0  0  0  0  0  0  0
    5.8380    0.8795    2.2221 H   0  0  0  0  0  0  0  0  0  0  0  0
    6.7663   -0.3465    3.0781 H   0  0  0  0  0  0  0  0  0  0  0  0
    8.7387    0.1260    1.8968 H   0  0  0  0  0  0  0  0  0  0  0  0
    7.9956    1.7090    1.9743 H   0  0  0  0  0  0  0  0  0  0  0  0
    8.4704   -0.0956   -0.3561 H   0  0  0  0  0  0  0  0  0  0  0  0
    8.4654    1.6612   -0.3002 H   0  0  0  0  0  0  0  0  0  0  0  0
    5.9525    1.6508   -0.2957 H   0  0  0  0  0  0  0  0  0  0  0  0
    6.6125    0.7876   -1.6915 H   0  0  0  0  0  0  0  0  0  0  0  0
    1.3167   -2.1557   -3.9208 H   0  0  0  0  0  0  0  0  0  0  0  0
   -1.0255   -2.0561   -3.1212 H   0  0  0  0  0  0  0  0  0  0  0  0
   -3.3568    0.0702    2.3895 H   0  0  0  0  0  0  0  0  0  0  0  0
   -4.3728    0.5332    4.4089 H   0  0  0  0  0  0  0  0  0  0  0  0
   -5.6270   -0.4495    5.1706 H   0  0  0  0  0  0  0  0  0  0  0  0
   -4.4935   -1.2353    4.0664 H   0  0  0  0  0  0  0  0  0  0  0  0
   -7.8622    1.7555    2.1929 H   0  0  0  0  0  0  0  0  0  0  0  0
   -8.2068    1.8212    0.4296 H   0  0  0  0  0  0  0  0  0  0  0  0
   -9.3814    1.1108    1.5505 H   0  0  0  0  0  0  0  0  0  0  0  0
  1  2  1  0
  2  3  1  0
  3  4  2  0
  4  5  1  0
  5  6  1  0
  6  7  2  0
  7  8  1  0
  8  9  2  0
  8 10  1  0
 10 11  2  0
 11 12  1  0
 12 13  1  0
 13 14  1  0
 14 15  1  0
 15 16  2  0
 15 17  1  0
 17 18  1  0
 18 19  1  0
 19 20  1  0
 20 21  1  0
 21 22  1  0
 12 23  2  0
 23 24  1  0
 24 25  2  0
 25 26  1  0
  5 27  2  0
 27 28  1  0
 28 29  1  0
 29 30  1  0
 28 31  2  0
 31 32  1  0
 32 33  1  0
 31  3  1  0
 26  6  1  0
 25 10  1  0
 22 17  1  0
  1 34  1  0
  1 35  1  0
  1 36  1  0
  4 37  1  0
  7 38  1  0
 11 39  1  0
 14 40  1  0
 14 41  1  0
 18 42  1  0
 18 43  1  0
 19 44  1  0
 19 45  1  0
 20 46  1  0
 20 47  1  0
 21 48  1  0
 21 49  1  0
 22 50  1  0
 22 51  1  0
 23 52  1  0
 24 53  1  0
 27 54  1  0
 30 55  1  0
 30 56  1  0
 30 57  1  0
 33 58  1  0
 33 59  1  0
 33 60  1  0
M  END
$$$$
