
     RDKit          3D

 33 35  0  0  0  0  0  0  0  0999 V2000
   -4.8876    1.9853   -0.6367 C   0  0  0  0  0  0  0  0  0  0  0  0
   -4.6141    0.5673   -0.1536 C   0  0  0  0  0  0  0  0  0  0  0  0
   -3.8014   -0.1962   -1.1325 C   0  0  0  0  0  0  0  0  0  0  0  0
   -4.0665   -0.4150   -2.4161 N   0  0  0  0  0  0  0  0  0  0  0  0
   -3.0383   -1.1838   -2.9579 N   0  0  0  0  0  0  0  0  0  0  0  0
   -2.2087   -1.3952   -1.9780 C   0  0  0  0  0  0  0  0  0  0  0  0
   -0.7364   -2.2209   -1.7314 S   0  0  0  0  0  0  0  0  0  0  0  0
   -0.8579   -1.6795   -0.0338 C   0  0  0  0  0  0  0  0  0  0  0  0
    0.2392   -2.0743    0.9138 C   0  0  0  0  0  0  0  0  0  0  0  0
    1.3871   -1.0962    0.8934 C   0  0  0  0  0  0  0  0  0  0  0  0
    2.5534   -1.3752    0.1698 C   0  0  0  0  0  0  0  0  0  0  0  0
    3.6097   -0.4571    0.1366 C   0  0  0  0  0  0  0  0  0  0  0  0
    3.5115    0.7525    0.8239 C   0  0  0  0  0  0  0  0  0  0  0  0
    4.4654    1.7311    0.8744 O   0  0  0  0  0  0  0  0  0  0  0  0
    5.6681    1.4946    0.1535 C   0  0  0  0  0  0  0  0  0  0  0  0
    2.3476    1.0349    1.5414 C   0  0  0  0  0  0  0  0  0  0  0  0
    1.2912    0.1220    1.5766 C   0  0  0  0  0  0  0  0  0  0  0  0
   -1.8912   -0.9556    0.3101 N   0  0  0  0  0  0  0  0  0  0  0  0
   -2.6242   -0.8200   -0.8264 N   0  0  0  0  0  0  0  0  0  0  0  0
   -5.4499    1.9833   -1.5781 H   0  0  0  0  0  0  0  0  0  0  0  0
   -5.4773    2.5319    0.1063 H   0  0  0  0  0  0  0  0  0  0  0  0
   -3.9531    2.5355   -0.8031 H   0  0  0  0  0  0  0  0  0  0  0  0
   -5.5665    0.0450    0.0030 H   0  0  0  0  0  0  0  0  0  0  0  0
   -4.1104    0.6136    0.8198 H   0  0  0  0  0  0  0  0  0  0  0  0
    0.5916   -3.0846    0.6740 H   0  0  0  0  0  0  0  0  0  0  0  0
   -0.1734   -2.1274    1.9290 H   0  0  0  0  0  0  0  0  0  0  0  0
    2.6548   -2.3107   -0.3776 H   0  0  0  0  0  0  0  0  0  0  0  0
    4.4934   -0.7181   -0.4362 H   0  0  0  0  0  0  0  0  0  0  0  0
    6.3190    2.3630    0.2954 H   0  0  0  0  0  0  0  0  0  0  0  0
    6.1951    0.6164    0.5419 H   0  0  0  0  0  0  0  0  0  0  0  0
    5.4723    1.3967   -0.9197 H   0  0  0  0  0  0  0  0  0  0  0  0
    2.2628    1.9774    2.0776 H   0  0  0  0  0  0  0  0  0  0  0  0
    0.3948    0.3730    2.1406 H   0  0  0  0  0  0  0  0  0  0  0  0
  1  2  1  0
  2  3  1  0
  3  4  2  0
  4  5  1  0
  5  6  2  0
  6  7  1  0
  7  8  1  0
  8  9  1  0
  9 10  1  0
 10 11  2  0
 11 12  1  0
 12 13  2  0
 13 14  1  0
 14 15  1  0
 13 16  1  0
 16 17  2  0
  8 18  2  0
 18 19  1  0
 19  3  1  0
 19  6  1  0
 17 10  1  0
  1 20  1  0
  1 21  1  0
  1 22  1  0
  2 23  1  0
  2 24  1  0
  9 25  1  0
  9 26  1  0
 11 27  1  0
 12 28  1  0
 15 29  1  0
 15 30  1  0
 15 31  1  0
 16 32  1  0
 17 33  1  0
M  END
$$$$
