
     RDKit          3D

 49 52  0  0  0  0  0  0  0  0999 V2000
   -6.8277   -0.4720    3.0675 C   0  0  0  0  0  0  0  0  0  0  0  0
   -7.3152   -0.1530    1.7709 O   0  0  0  0  0  0  0  0  0  0  0  0
   -6.4014    0.2861    0.8522 C   0  0  0  0  0  0  0  0  0  0  0  0
   -6.9459    0.6482   -0.3804 C   0  0  0  0  0  0  0  0  0  0  0  0
   -6.1242    1.1094   -1.4069 C   0  0  0  0  0  0  0  0  0  0  0  0
   -4.7468    1.2126   -1.2067 C   0  0  0  0  0  0  0  0  0  0  0  0
   -4.1860    0.8610    0.0220 C   0  0  0  0  0  0  0  0  0  0  0  0
   -2.8025    0.9182    0.2875 N   0  0  0  0  0  0  0  0  0  0  0  0
   -1.8312    1.5516   -0.4574 C   0  0  0  0  0  0  0  0  0  0  0  0
   -2.0396    2.3131   -1.3958 O   0  0  0  0  0  0  0  0  0  0  0  0
   -0.5355    1.2641   -0.0103 N   0  0  0  0  0  0  0  0  0  0  0  0
   -0.1536   -0.1133    0.3375 C   0  0  0  0  0  0  0  0  0  0  0  0
    0.2997   -0.8844   -0.9259 C   0  0  0  0  0  0  0  0  0  0  0  0
    1.3884   -0.1715   -1.6385 N   0  0  0  0  0  0  0  0  0  0  0  0
    2.6678   -0.3734   -1.0937 C   0  0  0  0  0  0  0  0  0  0  0  0
    3.2152   -1.6518   -1.0602 C   0  0  0  0  0  0  0  0  0  0  0  0
    4.4918   -1.8674   -0.5319 C   0  0  0  0  0  0  0  0  0  0  0  0
    5.2026   -0.7827   -0.0427 C   0  0  0  0  0  0  0  0  0  0  0  0
    6.5064   -0.9408    0.5149 N   0  0  0  0  0  0  0  0  0  0  0  0
    7.2432   -2.1047    0.6520 C   0  0  0  0  0  0  0  0  0  0  0  0
    8.4351   -1.7655    1.2478 C   0  0  0  0  0  0  0  0  0  0  0  0
    8.3487   -0.3812    1.4426 C   0  0  0  0  0  0  0  0  0  0  0  0
    7.1953    0.1242    1.0092 N   0  0  0  0  0  0  0  0  0  0  0  0
    4.6666    0.4546   -0.0881 N   0  0  0  0  0  0  0  0  0  0  0  0
    3.4056    0.6519   -0.6267 N   0  0  0  0  0  0  0  0  0  0  0  0
    1.0575    1.2540   -1.9195 C   0  0  0  0  0  0  0  0  0  0  0  0
    0.5600    1.9972   -0.6601 C   0  0  0  0  0  0  0  0  0  0  0  0
   -5.0212    0.3893    1.0478 C   0  0  0  0  0  0  0  0  0  0  0  0
   -6.1323   -1.3169    3.0292 H   0  0  0  0  0  0  0  0  0  0  0  0
   -6.3656    0.3998    3.5423 H   0  0  0  0  0  0  0  0  0  0  0  0
   -7.6823   -0.7718    3.6817 H   0  0  0  0  0  0  0  0  0  0  0  0
   -8.0183    0.5707   -0.5417 H   0  0  0  0  0  0  0  0  0  0  0  0
   -6.5544    1.3887   -2.3651 H   0  0  0  0  0  0  0  0  0  0  0  0
   -4.1349    1.5655   -2.0317 H   0  0  0  0  0  0  0  0  0  0  0  0
   -2.5121    0.6875    1.2256 H   0  0  0  0  0  0  0  0  0  0  0  0
   -0.9807   -0.6529    0.8062 H   0  0  0  0  0  0  0  0  0  0  0  0
    0.6615   -0.0540    1.0680 H   0  0  0  0  0  0  0  0  0  0  0  0
   -0.5490   -0.9707   -1.6164 H   0  0  0  0  0  0  0  0  0  0  0  0
    0.5792   -1.9087   -0.6558 H   0  0  0  0  0  0  0  0  0  0  0  0
    2.6642   -2.4897   -1.4760 H   0  0  0  0  0  0  0  0  0  0  0  0
    4.8852   -2.8761   -0.5313 H   0  0  0  0  0  0  0  0  0  0  0  0
    6.8750   -3.0627    0.3203 H   0  0  0  0  0  0  0  0  0  0  0  0
    9.2516   -2.4260    1.5031 H   0  0  0  0  0  0  0  0  0  0  0  0
    9.0782    0.2864    1.8839 H   0  0  0  0  0  0  0  0  0  0  0  0
    1.9053    1.7814   -2.3739 H   0  0  0  0  0  0  0  0  0  0  0  0
    0.2607    1.2583   -2.6741 H   0  0  0  0  0  0  0  0  0  0  0  0
    1.3595    2.1005    0.0812 H   0  0  0  0  0  0  0  0  0  0  0  0
    0.2343    3.0089   -0.9258 H   0  0  0  0  0  0  0  0  0  0  0  0
   -4.5784    0.1080    1.9962 H   0  0  0  0  0  0  0  0  0  0  0  0
  1  2  1  0
  2  3  1  0
  3  4  2  0
  4  5  1  0
  5  6  2  0
  6  7  1  0
  7  8  1  0
  8  9  1  0
  9 10  2  0
  9 11  1  0
 11 12  1  0
 12 13  1  0
 13 14  1  0
 14 15  1  0
 15 16  2  0
 16 17  1  0
 17 18  2  0
 18 19  1  0
 19 20  1  0
 20 21  2  0
 21 22  1  0
 22 23  2  0
 18 24  1  0
 24 25  2  0
 14 26  1  0
 26 27  1  0
  7 28  2  0
 28  3  1  0
 27 11  1  0
 25 15  1  0
 23 19  1  0
  1 29  1  0
  1 30  1  0
  1 31  1  0
  4 32  1  0
  5 33  1  0
  6 34  1  0
  8 35  1  0
 12 36  1  0
 12 37  1  0
 13 38  1  0
 13 39  1  0
 16 40  1  0
 17 41  1  0
 20 42  1  0
 21 43  1  0
 22 44  1  0
 26 45  1  0
 26 46  1  0
 27 47  1  0
 27 48  1  0
 28 49  1  0
M  END
$$$$
