
     RDKit          3D

 31 33  0  0  0  0  0  0  0  0999 V2000
    5.9378    0.4071    1.1619 C   0  0  0  0  0  0  0  0  0  0  0  0
    5.4899   -0.8644   -0.0506 S   0  0  0  0  0  0  0  0  0  0  0  0
    3.7290   -0.6026   -0.1559 C   0  0  0  0  0  0  0  0  0  0  0  0
    2.9120   -0.5892    0.9776 C   0  0  0  0  0  0  0  0  0  0  0  0
    1.5323   -0.3961    0.8525 C   0  0  0  0  0  0  0  0  0  0  0  0
    0.9534   -0.2153   -0.4094 C   0  0  0  0  0  0  0  0  0  0  0  0
   -0.5183   -0.0111   -0.4977 C   0  0  0  0  0  0  0  0  0  0  0  0
   -1.3068   -0.4870    0.4138 N   0  0  0  0  0  0  0  0  0  0  0  0
   -2.6886   -0.2685    0.2839 C   0  0  0  0  0  0  0  0  0  0  0  0
   -3.5492   -0.7984    1.2473 C   0  0  0  0  0  0  0  0  0  0  0  0
   -4.9307   -0.6015    1.1539 C   0  0  0  0  0  0  0  0  0  0  0  0
   -5.4653    0.1303    0.0924 C   0  0  0  0  0  0  0  0  0  0  0  0
   -4.6190    0.6656   -0.8774 C   0  0  0  0  0  0  0  0  0  0  0  0
   -3.2397    0.4598   -0.7726 C   0  0  0  0  0  0  0  0  0  0  0  0
   -2.3095    1.0089   -1.7704 C   0  0  0  0  0  0  0  0  0  0  0  0
   -2.6873    1.6922   -2.7147 O   0  0  0  0  0  0  0  0  0  0  0  0
   -0.9843    0.7144   -1.5716 N   0  0  0  0  0  0  0  0  0  0  0  0
    1.7650   -0.2589   -1.5487 C   0  0  0  0  0  0  0  0  0  0  0  0
    3.1451   -0.4529   -1.4183 C   0  0  0  0  0  0  0  0  0  0  0  0
    5.5638    1.3859    0.8491 H   0  0  0  0  0  0  0  0  0  0  0  0
    5.5406    0.1623    2.1502 H   0  0  0  0  0  0  0  0  0  0  0  0
    7.0275    0.4599    1.2350 H   0  0  0  0  0  0  0  0  0  0  0  0
    3.3304   -0.7457    1.9685 H   0  0  0  0  0  0  0  0  0  0  0  0
    0.9116   -0.3912    1.7467 H   0  0  0  0  0  0  0  0  0  0  0  0
   -3.1373   -1.3694    2.0755 H   0  0  0  0  0  0  0  0  0  0  0  0
   -5.5884   -1.0207    1.9116 H   0  0  0  0  0  0  0  0  0  0  0  0
   -6.5396    0.2827    0.0218 H   0  0  0  0  0  0  0  0  0  0  0  0
   -5.0282    1.2374   -1.7067 H   0  0  0  0  0  0  0  0  0  0  0  0
   -0.3560    1.1391   -2.2364 H   0  0  0  0  0  0  0  0  0  0  0  0
    1.3481   -0.1789   -2.5482 H   0  0  0  0  0  0  0  0  0  0  0  0
    3.7616   -0.4937   -2.3144 H   0  0  0  0  0  0  0  0  0  0  0  0
  1  2  1  0
  2  3  1  0
  3  4  2  0
  4  5  1  0
  5  6  2  0
  6  7  1  0
  7  8  2  0
  8  9  1  0
  9 10  2  0
 10 11  1  0
 11 12  2  0
 12 13  1  0
 13 14  2  0
 14 15  1  0
 15 16  2  0
 15 17  1  0
  6 18  1  0
 18 19  2  0
 19  3  1  0
 17  7  1  0
 14  9  1  0
  1 20  1  0
  1 21  1  0
  1 22  1  0
  4 23  1  0
  5 24  1  0
 10 25  1  0
 11 26  1  0
 12 27  1  0
 13 28  1  0
 17 29  1  0
 18 30  1  0
 19 31  1  0
M  END
$$$$
