
     RDKit          3D

 61 65  0  0  0  0  0  0  0  0999 V2000
    8.1464    1.0646    3.2805 C   0  0  0  0  0  0  0  0  0  0  0  0
    7.5070    1.4075    2.0547 O   0  0  0  0  0  0  0  0  0  0  0  0
    6.5195    0.5629    1.6087 C   0  0  0  0  0  0  0  0  0  0  0  0
    6.3004   -0.7301    2.0868 C   0  0  0  0  0  0  0  0  0  0  0  0
    5.2554   -1.5099    1.5723 C   0  0  0  0  0  0  0  0  0  0  0  0
    4.4037   -1.0259    0.5679 C   0  0  0  0  0  0  0  0  0  0  0  0
    3.2801   -1.8034    0.0107 C   0  0  0  0  0  0  0  0  0  0  0  0
    2.9922   -3.1482    0.6265 C   0  0  0  0  0  0  0  0  0  0  0  0
    2.5531   -1.2652   -0.9922 C   0  0  0  0  0  0  0  0  0  0  0  0
    1.4004   -1.9345   -1.6991 C   0  0  0  0  0  0  0  0  0  0  0  0
    0.0791   -1.4061   -1.1473 C   0  0  0  0  0  0  0  0  0  0  0  0
   -0.2400   -1.6246    0.0169 O   0  0  0  0  0  0  0  0  0  0  0  0
   -0.6837   -0.7416   -2.0964 N   0  0  0  0  0  0  0  0  0  0  0  0
   -1.9759   -0.2077   -1.9349 C   0  0  0  0  0  0  0  0  0  0  0  0
   -2.6318    0.2243   -3.0918 C   0  0  0  0  0  0  0  0  0  0  0  0
   -3.9325    0.7130   -3.0162 C   0  0  0  0  0  0  0  0  0  0  0  0
   -4.6124    0.8107   -1.7923 C   0  0  0  0  0  0  0  0  0  0  0  0
   -3.9339    0.4562   -0.6199 C   0  0  0  0  0  0  0  0  0  0  0  0
   -2.6243   -0.0732   -0.7035 C   0  0  0  0  0  0  0  0  0  0  0  0
   -4.4030    0.7767    0.7529 C   0  0  0  0  0  0  0  0  0  0  0  0
   -3.5659    1.1086    1.5943 O   0  0  0  0  0  0  0  0  0  0  0  0
   -5.7444    0.7294    1.0418 N   0  0  0  0  0  0  0  0  0  0  0  0
   -6.2152    0.9294    2.4013 C   0  0  0  0  0  0  0  0  0  0  0  0
   -7.4720    0.0756    2.4815 C   0  0  0  0  0  0  0  0  0  0  0  0
   -8.0384    0.1627    1.0699 C   0  0  0  0  0  0  0  0  0  0  0  0
   -6.7865    0.1942    0.1831 C   0  0  1  0  0  0  0  0  0  0  0  0
   -6.9898    1.0628   -1.0507 C   0  0  0  0  0  0  0  0  0  0  0  0
   -8.1023    1.4470   -1.4232 O   0  0  0  0  0  0  0  0  0  0  0  0
   -5.9303    1.2841   -1.8864 N   0  0  0  0  0  0  0  0  0  0  0  0
    2.8362    0.0954   -1.5263 C   0  0  0  0  0  0  0  0  0  0  0  0
    2.1889    0.5526   -2.4670 O   0  0  0  0  0  0  0  0  0  0  0  0
    3.8566    0.8102   -0.9360 O   0  0  0  0  0  0  0  0  0  0  0  0
    4.6482    0.2579    0.0876 C   0  0  0  0  0  0  0  0  0  0  0  0
    5.6938    1.0479    0.5859 C   0  0  0  0  0  0  0  0  0  0  0  0
    5.8327    2.3399    0.1364 O   0  0  0  0  0  0  0  0  0  0  0  0
    6.8144    2.4096   -0.8958 C   0  0  0  0  0  0  0  0  0  0  0  0
    7.4137    0.9171    4.0879 H   0  0  0  0  0  0  0  0  0  0  0  0
    8.7755    0.1793    3.1562 H   0  0  0  0  0  0  0  0  0  0  0  0
    8.8009    1.8998    3.5708 H   0  0  0  0  0  0  0  0  0  0  0  0
    6.9228   -1.1660    2.8616 H   0  0  0  0  0  0  0  0  0  0  0  0
    5.1267   -2.5045    1.9862 H   0  0  0  0  0  0  0  0  0  0  0  0
    2.0921   -3.6337    0.2389 H   0  0  0  0  0  0  0  0  0  0  0  0
    2.8313   -3.0565    1.7065 H   0  0  0  0  0  0  0  0  0  0  0  0
    3.8236   -3.8349    0.4489 H   0  0  0  0  0  0  0  0  0  0  0  0
    1.4703   -1.7871   -2.7857 H   0  0  0  0  0  0  0  0  0  0  0  0
    1.3932   -3.0249   -1.5811 H   0  0  0  0  0  0  0  0  0  0  0  0
   -0.2702   -0.6264   -3.0217 H   0  0  0  0  0  0  0  0  0  0  0  0
   -2.1452    0.1670   -4.0733 H   0  0  0  0  0  0  0  0  0  0  0  0
   -4.4242    0.9840   -3.9354 H   0  0  0  0  0  0  0  0  0  0  0  0
   -2.1063   -0.3220    0.2272 H   0  0  0  0  0  0  0  0  0  0  0  0
   -6.4352    2.0003    2.5216 H   0  0  0  0  0  0  0  0  0  0  0  0
   -5.4657    0.6295    3.1464 H   0  0  0  0  0  0  0  0  0  0  0  0
   -8.1720    0.4267    3.2448 H   0  0  0  0  0  0  0  0  0  0  0  0
   -7.2052   -0.9671    2.7097 H   0  0  0  0  0  0  0  0  0  0  0  0
   -8.6949   -0.6815    0.8309 H   0  0  0  0  0  0  0  0  0  0  0  0
   -8.6288    1.0842    0.9753 H   0  0  0  0  0  0  0  0  0  0  0  0
   -6.5017   -0.8203   -0.1192 H   0  0  0  0  0  0  0  0  0  0  0  0
   -6.2293    1.7125   -2.7643 H   0  0  0  0  0  0  0  0  0  0  0  0
    7.8022    2.0993   -0.5341 H   0  0  0  0  0  0  0  0  0  0  0  0
    6.5146    1.8169   -1.7722 H   0  0  0  0  0  0  0  0  0  0  0  0
    6.8860    3.4558   -1.2158 H   0  0  0  0  0  0  0  0  0  0  0  0
  1  2  1  0
  2  3  1  0
  3  4  2  0
  4  5  1  0
  5  6  2  0
  6  7  1  0
  7  8  1  0
  7  9  2  0
  9 10  1  0
 10 11  1  0
 11 12  2  0
 11 13  1  0
 13 14  1  0
 14 15  2  0
 15 16  1  0
 16 17  2  0
 17 18  1  0
 18 19  2  0
 18 20  1  0
 20 21  2  0
 20 22  1  0
 22 23  1  0
 23 24  1  0
 24 25  1  0
 25 26  1  0
 26 27  1  0
 27 28  2  0
 27 29  1  0
  9 30  1  0
 30 31  2  0
 30 32  1  0
 32 33  1  0
 33 34  2  0
 34 35  1  0
 35 36  1  0
 34  3  1  0
 33  6  1  0
 19 14  1  0
 26 22  1  0
 29 17  1  0
  1 37  1  0
  1 38  1  0
  1 39  1  0
  4 40  1  0
  5 41  1  0
  8 42  1  0
  8 43  1  0
  8 44  1  0
 10 45  1  0
 10 46  1  0
 13 47  1  0
 15 48  1  0
 16 49  1  0
 19 50  1  0
 23 51  1  0
 23 52  1  0
 24 53  1  0
 24 54  1  0
 25 55  1  0
 25 56  1  0
 26 57  1  6
 29 58  1  0
 36 59  1  0
 36 60  1  0
 36 61  1  0
M  END
$$$$
