
     RDKit          3D

 46 48  0  0  0  0  0  0  0  0999 V2000
    6.2110    1.3671   -0.3838 C   0  0  0  0  0  0  0  0  0  0  0  0
    5.2960    0.2445   -0.1951 N   0  0  0  0  0  0  0  0  0  0  0  0
    5.0112    0.0006    1.2353 C   0  0  0  0  0  0  0  0  0  0  0  0
    3.5997    0.3995    1.7021 C   0  0  0  0  0  0  0  0  0  0  0  0
    2.5514   -0.2108    0.8827 N   0  0  0  0  0  0  0  0  0  0  0  0
    1.2653   -0.2698    1.4065 C   0  0  0  0  0  0  0  0  0  0  0  0
    0.9527    0.2479    2.4759 O   0  0  0  0  0  0  0  0  0  0  0  0
    0.2084   -0.9795    0.6484 C   0  0  0  0  0  0  0  0  0  0  0  0
    0.4073   -2.2778    0.1700 C   0  0  0  0  0  0  0  0  0  0  0  0
   -0.6130   -2.9196   -0.5348 C   0  0  0  0  0  0  0  0  0  0  0  0
   -1.8395   -2.2776   -0.7428 C   0  0  0  0  0  0  0  0  0  0  0  0
   -3.0251   -3.1188   -1.6718 Cl  0  0  0  0  0  0  0  0  0  0  0  0
   -2.0562   -0.9911   -0.2214 C   0  0  0  0  0  0  0  0  0  0  0  0
   -3.2819   -0.2587   -0.3650 N   0  0  0  0  0  0  0  0  0  0  0  0
   -3.5569    0.4261   -1.6411 C   0  0  0  0  0  0  0  0  0  0  0  0
   -4.7806    1.3441   -1.5269 C   0  0  0  0  0  0  0  0  0  0  0  0
   -4.9504    1.9105   -0.1172 C   0  0  0  0  0  0  0  0  0  0  0  0
   -5.3371    0.8429    0.9069 C   0  0  0  0  0  0  0  0  0  0  0  0
   -4.5996   -0.7513    0.5724 S   0  0  0  0  0  6  0  0  0  0  0  0
   -4.1203   -1.2970    1.8239 O   0  0  0  0  0  0  0  0  0  0  0  0
   -5.5116   -1.4900   -0.2752 O   0  0  0  0  0  0  0  0  0  0  0  0
   -1.0263   -0.3464    0.4724 C   0  0  0  0  0  0  0  0  0  0  0  0
    2.9023   -0.4608   -0.5220 C   0  0  0  0  0  0  0  0  0  0  0  0
    4.0672    0.4325   -0.9898 C   0  0  0  0  0  0  0  0  0  0  0  0
    6.4361    1.5067   -1.4470 H   0  0  0  0  0  0  0  0  0  0  0  0
    7.1664    1.1720    0.1157 H   0  0  0  0  0  0  0  0  0  0  0  0
    5.8001    2.3040    0.0093 H   0  0  0  0  0  0  0  0  0  0  0  0
    5.7579    0.4759    1.8834 H   0  0  0  0  0  0  0  0  0  0  0  0
    5.1241   -1.0797    1.3948 H   0  0  0  0  0  0  0  0  0  0  0  0
    3.4562    0.1073    2.7486 H   0  0  0  0  0  0  0  0  0  0  0  0
    3.4721    1.4874    1.6433 H   0  0  0  0  0  0  0  0  0  0  0  0
    1.3440   -2.7980    0.3548 H   0  0  0  0  0  0  0  0  0  0  0  0
   -0.4502   -3.9261   -0.9142 H   0  0  0  0  0  0  0  0  0  0  0  0
   -2.6872    1.0465   -1.8918 H   0  0  0  0  0  0  0  0  0  0  0  0
   -3.6961   -0.2891   -2.4576 H   0  0  0  0  0  0  0  0  0  0  0  0
   -5.6866    0.7946   -1.8105 H   0  0  0  0  0  0  0  0  0  0  0  0
   -4.6807    2.1621   -2.2499 H   0  0  0  0  0  0  0  0  0  0  0  0
   -4.0137    2.3913    0.1920 H   0  0  0  0  0  0  0  0  0  0  0  0
   -5.7146    2.6962   -0.1182 H   0  0  0  0  0  0  0  0  0  0  0  0
   -6.4214    0.6898    0.9093 H   0  0  0  0  0  0  0  0  0  0  0  0
   -5.0311    1.1575    1.9093 H   0  0  0  0  0  0  0  0  0  0  0  0
   -1.1862    0.6449    0.8904 H   0  0  0  0  0  0  0  0  0  0  0  0
    3.1857   -1.5162   -0.6068 H   0  0  0  0  0  0  0  0  0  0  0  0
    2.0311   -0.2851   -1.1609 H   0  0  0  0  0  0  0  0  0  0  0  0
    3.7340    1.4782   -0.9367 H   0  0  0  0  0  0  0  0  0  0  0  0
    4.2860    0.2135   -2.0412 H   0  0  0  0  0  0  0  0  0  0  0  0
  1  2  1  0
  2  3  1  0
  3  4  1  0
  4  5  1  0
  5  6  1  0
  6  7  2  0
  6  8  1  0
  8  9  2  0
  9 10  1  0
 10 11  2  0
 11 12  1  0
 11 13  1  0
 13 14  1  0
 14 15  1  0
 15 16  1  0
 16 17  1  0
 17 18  1  0
 18 19  1  0
 19 20  2  0
 19 21  2  0
 13 22  2  0
  5 23  1  0
 23 24  1  0
 24  2  1  0
 22  8  1  0
 19 14  1  0
  1 25  1  0
  1 26  1  0
  1 27  1  0
  3 28  1  0
  3 29  1  0
  4 30  1  0
  4 31  1  0
  9 32  1  0
 10 33  1  0
 15 34  1  0
 15 35  1  0
 16 36  1  0
 16 37  1  0
 17 38  1  0
 17 39  1  0
 18 40  1  0
 18 41  1  0
 22 42  1  0
 23 43  1  0
 23 44  1  0
 24 45  1  0
 24 46  1  0
M  END
$$$$
