
     RDKit          3D

 56 58  0  0  0  0  0  0  0  0999 V2000
   -8.2281   -1.0120   -2.2244 C   0  0  0  0  0  0  0  0  0  0  0  0
   -6.7538   -0.8546   -2.4903 C   0  0  0  0  0  0  0  0  0  0  0  0
   -6.2924   -0.9907   -3.6209 O   0  0  0  0  0  0  0  0  0  0  0  0
   -5.8427   -0.5262   -1.3554 C   0  0  0  0  0  0  0  0  0  0  0  0
   -6.3220   -0.2481   -0.0705 C   0  0  0  0  0  0  0  0  0  0  0  0
   -5.4284    0.0524    0.9581 C   0  0  0  0  0  0  0  0  0  0  0  0
   -4.0555    0.0821    0.7080 C   0  0  0  0  0  0  0  0  0  0  0  0
   -3.5716   -0.1743   -0.5746 C   0  0  0  0  0  0  0  0  0  0  0  0
   -2.1701   -0.2063   -0.8855 N   0  0  0  0  0  0  0  0  0  0  0  0
   -1.4412   -1.4305   -0.4593 C   0  0  0  0  0  0  0  0  0  0  0  0
   -0.8473   -1.3677    0.9449 C   0  0  0  0  0  0  0  0  0  0  0  0
   -1.5514   -1.5697    1.9337 O   0  0  0  0  0  0  0  0  0  0  0  0
    0.5050   -1.0809    0.9502 N   0  0  0  0  0  0  0  0  0  0  0  0
    1.3835   -0.9539    2.0536 C   0  0  0  0  0  0  0  0  0  0  0  0
    0.9321   -1.0110    3.3775 C   0  0  0  0  0  0  0  0  0  0  0  0
    1.8238   -0.8916    4.4480 C   0  0  0  0  0  0  0  0  0  0  0  0
    3.1825   -0.7254    4.2133 C   0  0  0  0  0  0  0  0  0  0  0  0
    3.6549   -0.6615    2.9035 C   0  0  0  0  0  0  0  0  0  0  0  0
    2.7653   -0.7538    1.8185 C   0  0  0  0  0  0  0  0  0  0  0  0
    3.2983   -0.6870    0.4206 C   0  0  0  0  0  0  0  0  0  0  0  0
    2.6811   -1.2149   -0.5016 O   0  0  0  0  0  0  0  0  0  0  0  0
    4.4742    0.0123    0.2313 N   0  0  0  0  0  0  0  0  0  0  0  0
    4.9595    0.2704   -1.1030 C   0  0  0  0  0  0  0  0  0  0  0  0
    6.3986    0.6142   -1.0160 C   0  0  0  0  0  0  0  0  0  0  0  0
    7.5511   -0.0243   -1.4294 C   0  0  0  0  0  0  0  0  0  0  0  0
    8.6273    0.8155   -1.0586 C   0  0  0  0  0  0  0  0  0  0  0  0
    8.0669    1.9096   -0.4429 C   0  0  0  0  0  0  0  0  0  0  0  0
    6.7145    1.7951   -0.4071 O   0  0  0  0  0  0  0  0  0  0  0  0
   -1.2970    1.2459   -0.7376 S   0  0  0  0  0  6  0  0  0  0  0  0
   -2.0650    2.2661   -1.9793 C   0  0  0  0  0  0  0  0  0  0  0  0
   -1.5394    1.8340    0.5603 O   0  0  0  0  0  0  0  0  0  0  0  0
    0.0550    0.9759   -1.1840 O   0  0  0  0  0  0  0  0  0  0  0  0
   -4.4620   -0.4960   -1.5989 C   0  0  0  0  0  0  0  0  0  0  0  0
   -8.3970   -1.8036   -1.4894 H   0  0  0  0  0  0  0  0  0  0  0  0
   -8.7314   -1.2995   -3.1529 H   0  0  0  0  0  0  0  0  0  0  0  0
   -8.6573   -0.0655   -1.8861 H   0  0  0  0  0  0  0  0  0  0  0  0
   -7.3852   -0.2591    0.1604 H   0  0  0  0  0  0  0  0  0  0  0  0
   -5.7961    0.2556    1.9613 H   0  0  0  0  0  0  0  0  0  0  0  0
   -3.3771    0.3013    1.5284 H   0  0  0  0  0  0  0  0  0  0  0  0
   -0.6608   -1.6460   -1.1962 H   0  0  0  0  0  0  0  0  0  0  0  0
   -2.1100   -2.3001   -0.4925 H   0  0  0  0  0  0  0  0  0  0  0  0
    0.9575   -0.9707    0.0365 H   0  0  0  0  0  0  0  0  0  0  0  0
   -0.1186   -1.1390    3.6156 H   0  0  0  0  0  0  0  0  0  0  0  0
    1.4483   -0.9379    5.4677 H   0  0  0  0  0  0  0  0  0  0  0  0
    3.8740   -0.6516    5.0489 H   0  0  0  0  0  0  0  0  0  0  0  0
    4.7249   -0.5672    2.7457 H   0  0  0  0  0  0  0  0  0  0  0  0
    4.7846    0.6577    0.9446 H   0  0  0  0  0  0  0  0  0  0  0  0
    4.3835    1.1045   -1.5198 H   0  0  0  0  0  0  0  0  0  0  0  0
    4.7980   -0.6097   -1.7374 H   0  0  0  0  0  0  0  0  0  0  0  0
    7.6025   -0.9778   -1.9361 H   0  0  0  0  0  0  0  0  0  0  0  0
    9.6821    0.6479   -1.2220 H   0  0  0  0  0  0  0  0  0  0  0  0
    8.4727    2.8077    0.0005 H   0  0  0  0  0  0  0  0  0  0  0  0
   -1.9884    1.7649   -2.9462 H   0  0  0  0  0  0  0  0  0  0  0  0
   -1.5276    3.2170   -2.0140 H   0  0  0  0  0  0  0  0  0  0  0  0
   -3.1054    2.4465   -1.7063 H   0  0  0  0  0  0  0  0  0  0  0  0
   -4.0793   -0.7231   -2.5927 H   0  0  0  0  0  0  0  0  0  0  0  0
  1  2  1  0
  2  3  2  0
  2  4  1  0
  4  5  2  0
  5  6  1  0
  6  7  2  0
  7  8  1  0
  8  9  1  0
  9 10  1  0
 10 11  1  0
 11 12  2  0
 11 13  1  0
 13 14  1  0
 14 15  2  0
 15 16  1  0
 16 17  2  0
 17 18  1  0
 18 19  2  0
 19 20  1  0
 20 21  2  0
 20 22  1  0
 22 23  1  0
 23 24  1  0
 24 25  2  0
 25 26  1  0
 26 27  2  0
 27 28  1  0
  9 29  1  0
 29 30  1  0
 29 31  2  0
 29 32  2  0
  8 33  2  0
 33  4  1  0
 19 14  1  0
 28 24  1  0
  1 34  1  0
  1 35  1  0
  1 36  1  0
  5 37  1  0
  6 38  1  0
  7 39  1  0
 10 40  1  0
 10 41  1  0
 13 42  1  0
 15 43  1  0
 16 44  1  0
 17 45  1  0
 18 46  1  0
 22 47  1  0
 23 48  1  0
 23 49  1  0
 25 50  1  0
 26 51  1  0
 27 52  1  0
 30 53  1  0
 30 54  1  0
 30 55  1  0
 33 56  1  0
M  END
$$$$
