
     RDKit          3D

 40 41  0  0  0  0  0  0  0  0999 V2000
   -5.3633    1.2275    0.6338 C   0  0  0  0  0  0  0  0  0  0  0  0
   -4.1335    0.8362   -0.1307 C   0  0  0  0  0  0  0  0  0  0  0  0
   -4.1944    0.6123   -1.5111 C   0  0  0  0  0  0  0  0  0  0  0  0
   -3.0445    0.2675   -2.2225 C   0  0  0  0  0  0  0  0  0  0  0  0
   -1.8207    0.1563   -1.5625 C   0  0  0  0  0  0  0  0  0  0  0  0
   -1.7431    0.4038   -0.1895 C   0  0  0  0  0  0  0  0  0  0  0  0
   -0.4962    0.2750    0.5114 N   0  0  0  0  0  0  0  0  0  0  0  0
    0.6570    1.0837    0.0278 C   0  0  0  0  0  0  0  0  0  0  0  0
    1.1208    2.0392    1.1278 C   0  0  0  0  0  0  0  0  0  0  0  0
    1.7861    0.2767   -0.6144 C   0  0  0  0  0  0  0  0  0  0  0  0
    1.7628   -0.0010   -1.8150 O   0  0  0  0  0  0  0  0  0  0  0  0
    2.7797   -0.1694    0.2344 N   0  0  0  0  0  0  0  0  0  0  0  0
    3.8623   -0.9816   -0.2278 C   0  0  0  0  0  0  0  0  0  0  0  0
    5.2161   -0.3736   -0.4665 C   0  0  0  0  0  0  0  0  0  0  0  0
    5.0093   -1.3089    0.6882 C   0  0  0  0  0  0  0  0  0  0  0  0
   -0.2614   -1.1292    1.4228 S   0  0  0  0  0  6  0  0  0  0  0  0
   -0.1294   -2.4111    0.1874 C   0  0  0  0  0  0  0  0  0  0  0  0
    1.0244   -1.0163    2.0864 O   0  0  0  0  0  0  0  0  0  0  0  0
   -1.4522   -1.3992    2.2013 O   0  0  0  0  0  0  0  0  0  0  0  0
   -2.8972    0.7395    0.5218 C   0  0  0  0  0  0  0  0  0  0  0  0
   -5.4559    2.3176    0.6607 H   0  0  0  0  0  0  0  0  0  0  0  0
   -5.3210    0.8493    1.6606 H   0  0  0  0  0  0  0  0  0  0  0  0
   -6.2623    0.8076    0.1704 H   0  0  0  0  0  0  0  0  0  0  0  0
   -5.1413    0.6999   -2.0400 H   0  0  0  0  0  0  0  0  0  0  0  0
   -3.1026    0.0858   -3.2929 H   0  0  0  0  0  0  0  0  0  0  0  0
   -0.9374   -0.1195   -2.1328 H   0  0  0  0  0  0  0  0  0  0  0  0
    0.3106    1.7449   -0.7806 H   0  0  0  0  0  0  0  0  0  0  0  0
    1.9691    2.6424    0.7865 H   0  0  0  0  0  0  0  0  0  0  0  0
    1.4308    1.5192    2.0387 H   0  0  0  0  0  0  0  0  0  0  0  0
    0.3106    2.7216    1.4079 H   0  0  0  0  0  0  0  0  0  0  0  0
    2.5214   -0.2690    1.2204 H   0  0  0  0  0  0  0  0  0  0  0  0
    3.5508   -1.7681   -0.9127 H   0  0  0  0  0  0  0  0  0  0  0  0
    5.3516    0.6799   -0.2524 H   0  0  0  0  0  0  0  0  0  0  0  0
    5.7824   -0.7292   -1.3194 H   0  0  0  0  0  0  0  0  0  0  0  0
    5.0144   -0.8886    1.6869 H   0  0  0  0  0  0  0  0  0  0  0  0
    5.4418   -2.3005    0.6223 H   0  0  0  0  0  0  0  0  0  0  0  0
    0.6939   -2.1977   -0.4916 H   0  0  0  0  0  0  0  0  0  0  0  0
    0.0692   -3.3498    0.7106 H   0  0  0  0  0  0  0  0  0  0  0  0
   -1.0746   -2.4932   -0.3508 H   0  0  0  0  0  0  0  0  0  0  0  0
   -2.8344    0.9204    1.5931 H   0  0  0  0  0  0  0  0  0  0  0  0
  1  2  1  0
  2  3  2  0
  3  4  1  0
  4  5  2  0
  5  6  1  0
  6  7  1  0
  7  8  1  0
  8  9  1  0
  8 10  1  0
 10 11  2  0
 10 12  1  0
 12 13  1  0
 13 14  1  0
 14 15  1  0
  7 16  1  0
 16 17  1  0
 16 18  2  0
 16 19  2  0
  6 20  2  0
 20  2  1  0
 15 13  1  0
  1 21  1  0
  1 22  1  0
  1 23  1  0
  3 24  1  0
  4 25  1  0
  5 26  1  0
  8 27  1  0
  9 28  1  0
  9 29  1  0
  9 30  1  0
 12 31  1  0
 13 32  1  0
 14 33  1  0
 14 34  1  0
 15 35  1  0
 15 36  1  0
 17 37  1  0
 17 38  1  0
 17 39  1  0
 20 40  1  0
M  END
$$$$
