
     RDKit          3D

 36 37  0  0  0  0  0  0  0  0999 V2000
   -0.3782    1.8175    2.7075 C   0  0  0  0  0  0  0  0  0  0  0  0
   -1.5360    1.4811    1.9524 O   0  0  0  0  0  0  0  0  0  0  0  0
   -1.3335    0.7592    0.8039 C   0  0  0  0  0  0  0  0  0  0  0  0
   -0.1948   -0.0076    0.5476 C   0  0  0  0  0  0  0  0  0  0  0  0
   -0.0718   -0.7060   -0.6601 C   0  0  0  0  0  0  0  0  0  0  0  0
    1.1191   -1.5458   -0.9759 C   0  0  0  0  0  0  0  0  0  0  0  0
    0.9505   -2.5364   -1.6904 O   0  0  0  0  0  0  0  0  0  0  0  0
    2.4403   -1.2982   -0.5413 N   0  0  0  0  0  0  0  0  0  0  0  0
    3.5563   -2.0758   -0.7785 C   0  0  0  0  0  0  0  0  0  0  0  0
    4.6249   -1.4394   -0.1996 C   0  0  0  0  0  0  0  0  0  0  0  0
    4.0821   -0.2696    0.3694 C   0  0  0  0  0  0  0  0  0  0  0  0
    4.7936    0.7959    1.1164 C   0  0  0  0  0  0  0  0  0  0  0  0
    2.7626   -0.1805    0.1655 N   0  0  0  0  0  0  0  0  0  0  0  0
   -1.1138   -0.6683   -1.6027 C   0  0  0  0  0  0  0  0  0  0  0  0
   -2.2662    0.0796   -1.3567 C   0  0  0  0  0  0  0  0  0  0  0  0
   -3.3312    0.1840   -2.2131 O   0  0  0  0  0  0  0  0  0  0  0  0
   -3.2182   -0.4455   -3.4823 C   0  0  0  0  0  0  0  0  0  0  0  0
   -2.3722    0.7780   -0.1422 C   0  0  0  0  0  0  0  0  0  0  0  0
   -3.4825    1.5590    0.0929 O   0  0  0  0  0  0  0  0  0  0  0  0
   -4.4816    0.7909    0.7615 C   0  0  0  0  0  0  0  0  0  0  0  0
    0.0068    0.9412    3.2384 H   0  0  0  0  0  0  0  0  0  0  0  0
   -0.6729    2.5571    3.4583 H   0  0  0  0  0  0  0  0  0  0  0  0
    0.3961    2.2708    2.0791 H   0  0  0  0  0  0  0  0  0  0  0  0
    0.5899   -0.0812    1.2921 H   0  0  0  0  0  0  0  0  0  0  0  0
    3.4725   -2.9985   -1.3363 H   0  0  0  0  0  0  0  0  0  0  0  0
    5.6543   -1.7702   -0.1942 H   0  0  0  0  0  0  0  0  0  0  0  0
    4.3670    0.9134    2.1178 H   0  0  0  0  0  0  0  0  0  0  0  0
    4.7124    1.7524    0.5901 H   0  0  0  0  0  0  0  0  0  0  0  0
    5.8565    0.5585    1.2269 H   0  0  0  0  0  0  0  0  0  0  0  0
   -0.9986   -1.2348   -2.5223 H   0  0  0  0  0  0  0  0  0  0  0  0
   -3.1465   -1.5329   -3.3768 H   0  0  0  0  0  0  0  0  0  0  0  0
   -4.1297   -0.2260   -4.0465 H   0  0  0  0  0  0  0  0  0  0  0  0
   -2.3714   -0.0451   -4.0495 H   0  0  0  0  0  0  0  0  0  0  0  0
   -4.8129   -0.0546    0.1487 H   0  0  0  0  0  0  0  0  0  0  0  0
   -5.3446    1.4414    0.9324 H   0  0  0  0  0  0  0  0  0  0  0  0
   -4.1283    0.4365    1.7360 H   0  0  0  0  0  0  0  0  0  0  0  0
  1  2  1  0
  2  3  1  0
  3  4  2  0
  4  5  1  0
  5  6  1  0
  6  7  2  0
  6  8  1  0
  8  9  1  0
  9 10  2  0
 10 11  1  0
 11 12  1  0
 11 13  2  0
  5 14  2  0
 14 15  1  0
 15 16  1  0
 16 17  1  0
 15 18  2  0
 18 19  1  0
 19 20  1  0
 18  3  1  0
 13  8  1  0
  1 21  1  0
  1 22  1  0
  1 23  1  0
  4 24  1  0
  9 25  1  0
 10 26  1  0
 12 27  1  0
 12 28  1  0
 12 29  1  0
 14 30  1  0
 17 31  1  0
 17 32  1  0
 17 33  1  0
 20 34  1  0
 20 35  1  0
 20 36  1  0
M  END
$$$$
