
     RDKit          3D

 50 53  0  0  0  0  0  0  0  0999 V2000
    2.0584   -0.7693    0.1767 O   0  0  0  0  0  0  0  0  0  0  0  0
    1.7827    0.4025   -0.0735 C   0  0  0  0  0  0  0  0  0  0  0  0
    2.8774    1.4147   -0.4220 C   0  0  0  0  0  0  0  0  0  0  0  0
    4.1873    0.8269   -0.2371 N   0  0  0  0  0  0  0  0  0  0  0  0
    5.3261    1.5531   -0.4922 C   0  0  0  0  0  0  0  0  0  0  0  0
    5.2926    2.7277   -0.8441 O   0  0  0  0  0  0  0  0  0  0  0  0
    6.6251    0.8366   -0.3550 C   0  0  0  0  0  0  0  0  0  0  0  0
    7.7324    1.3317   -1.0564 C   0  0  0  0  0  0  0  0  0  0  0  0
    8.9707    0.6944   -0.9585 C   0  0  0  0  0  0  0  0  0  0  0  0
    9.1108   -0.4349   -0.1533 C   0  0  0  0  0  0  0  0  0  0  0  0
    8.0169   -0.9247    0.5601 C   0  0  0  0  0  0  0  0  0  0  0  0
    6.7755   -0.2901    0.4646 C   0  0  0  0  0  0  0  0  0  0  0  0
    0.5180    0.9686   -0.1058 N   0  0  0  0  0  0  0  0  0  0  0  0
   -0.7142    0.3340    0.1538 C   0  0  0  0  0  0  0  0  0  0  0  0
   -1.8741    1.1273    0.0535 C   0  0  0  0  0  0  0  0  0  0  0  0
   -3.1505    0.5943    0.2869 C   0  0  0  0  0  0  0  0  0  0  0  0
   -3.2590   -0.7448    0.6101 C   0  0  0  0  0  0  0  0  0  0  0  0
   -2.1084   -1.5251    0.7445 C   0  0  0  0  0  0  0  0  0  0  0  0
   -0.8385   -1.0102    0.5069 C   0  0  0  0  0  0  0  0  0  0  0  0
   -2.4495   -2.9311    1.1313 C   0  0  0  0  0  0  0  0  0  0  0  0
   -3.9274   -2.7879    1.5022 C   0  0  0  0  0  0  0  0  0  0  0  0
   -4.3904   -1.5237    0.9138 N   0  0  0  0  0  0  0  0  0  0  0  0
   -5.7383   -1.2136    0.9120 C   0  0  0  0  0  0  0  0  0  0  0  0
   -6.5695   -1.8567    1.5527 O   0  0  0  0  0  0  0  0  0  0  0  0
   -6.2468   -0.1326    0.0557 C   0  0  0  0  0  0  0  0  0  0  0  0
   -5.9540   -0.0697   -1.3083 C   0  0  0  0  0  0  0  0  0  0  0  0
   -6.4995    0.9610   -2.0695 C   0  0  0  0  0  0  0  0  0  0  0  0
   -7.3253    1.8801   -1.4382 C   0  0  0  0  0  0  0  0  0  0  0  0
   -7.6412    1.8313   -0.1242 N   0  0  0  0  0  0  0  0  0  0  0  0
   -7.1104    0.8100    0.5929 C   0  0  0  0  0  0  0  0  0  0  0  0
    2.7950    2.2958    0.2225 H   0  0  0  0  0  0  0  0  0  0  0  0
    2.7732    1.7147   -1.4698 H   0  0  0  0  0  0  0  0  0  0  0  0
    4.2185   -0.1818   -0.1310 H   0  0  0  0  0  0  0  0  0  0  0  0
    7.6314    2.2156   -1.6833 H   0  0  0  0  0  0  0  0  0  0  0  0
    9.8249    1.0819   -1.5081 H   0  0  0  0  0  0  0  0  0  0  0  0
   10.0761   -0.9293   -0.0751 H   0  0  0  0  0  0  0  0  0  0  0  0
    8.1331   -1.7974    1.1984 H   0  0  0  0  0  0  0  0  0  0  0  0
    5.9486   -0.6742    1.0548 H   0  0  0  0  0  0  0  0  0  0  0  0
    0.4674    1.9533   -0.3398 H   0  0  0  0  0  0  0  0  0  0  0  0
   -1.8008    2.1826   -0.2002 H   0  0  0  0  0  0  0  0  0  0  0  0
   -4.0049    1.2572    0.2356 H   0  0  0  0  0  0  0  0  0  0  0  0
    0.0186   -1.6658    0.6091 H   0  0  0  0  0  0  0  0  0  0  0  0
   -2.3229   -3.5955    0.2703 H   0  0  0  0  0  0  0  0  0  0  0  0
   -1.8563   -3.2956    1.9744 H   0  0  0  0  0  0  0  0  0  0  0  0
   -4.5317   -3.6256    1.1376 H   0  0  0  0  0  0  0  0  0  0  0  0
   -4.0606   -2.7193    2.5893 H   0  0  0  0  0  0  0  0  0  0  0  0
   -5.3158   -0.8154   -1.7739 H   0  0  0  0  0  0  0  0  0  0  0  0
   -6.2925    1.0425   -3.1310 H   0  0  0  0  0  0  0  0  0  0  0  0
   -7.7745    2.7010   -1.9908 H   0  0  0  0  0  0  0  0  0  0  0  0
   -7.4039    0.7754    1.6388 H   0  0  0  0  0  0  0  0  0  0  0  0
  1  2  2  0
  2  3  1  0
  3  4  1  0
  4  5  1  0
  5  6  2  0
  5  7  1  0
  7  8  2  0
  8  9  1  0
  9 10  2  0
 10 11  1  0
 11 12  2  0
  2 13  1  0
 13 14  1  0
 14 15  2  0
 15 16  1  0
 16 17  2  0
 17 18  1  0
 18 19  2  0
 18 20  1  0
 20 21  1  0
 21 22  1  0
 22 23  1  0
 23 24  2  0
 23 25  1  0
 25 26  2  0
 26 27  1  0
 27 28  2  0
 28 29  1  0
 29 30  2  0
 12  7  1  0
 19 14  1  0
 30 25  1  0
 22 17  1  0
  3 31  1  0
  3 32  1  0
  4 33  1  0
  8 34  1  0
  9 35  1  0
 10 36  1  0
 11 37  1  0
 12 38  1  0
 13 39  1  0
 15 40  1  0
 16 41  1  0
 19 42  1  0
 20 43  1  0
 20 44  1  0
 21 45  1  0
 21 46  1  0
 26 47  1  0
 27 48  1  0
 28 49  1  0
 30 50  1  0
M  END
$$$$
