
     RDKit          3D

 49 51  0  0  0  0  0  0  0  0999 V2000
    8.5301    1.5660    1.1214 C   0  0  0  0  0  0  0  0  0  0  0  0
    7.4516    0.5894    0.7606 C   0  0  0  0  0  0  0  0  0  0  0  0
    7.7658   -0.7383    0.5152 C   0  0  0  0  0  0  0  0  0  0  0  0
    6.7334   -1.6072    0.1963 C   0  0  0  0  0  0  0  0  0  0  0  0
    5.4276   -1.1232    0.1214 C   0  0  0  0  0  0  0  0  0  0  0  0
    5.1785    0.2208    0.3597 C   0  0  0  0  0  0  0  0  0  0  0  0
    3.9308    0.8183    0.3117 N   0  0  0  0  0  0  0  0  0  0  0  0
    2.6501    0.5109   -0.1145 C   0  0  0  0  0  0  0  0  0  0  0  0
    2.3082   -0.5684   -0.9048 C   0  0  0  0  0  0  0  0  0  0  0  0
    0.9716   -0.7800   -1.2671 C   0  0  0  0  0  0  0  0  0  0  0  0
   -0.0226    0.0863   -0.8358 C   0  0  0  0  0  0  0  0  0  0  0  0
   -1.3669   -0.1153   -1.2146 N   0  0  0  0  0  0  0  0  0  0  0  0
   -1.8958   -1.4478   -0.8164 C   0  0  0  0  0  0  0  0  0  0  0  0
   -3.3435   -1.6167   -1.3241 C   0  0  0  0  0  0  0  0  0  0  0  0
   -4.1880   -0.5135   -0.8559 N   0  0  0  0  0  0  0  0  0  0  0  0
   -4.8867   -0.7055    0.3336 C   0  0  0  0  0  0  0  0  0  0  0  0
   -4.8580   -1.7884    0.9224 O   0  0  0  0  0  0  0  0  0  0  0  0
   -5.7296    0.4581    0.8660 C   0  0  0  0  0  0  0  0  0  0  0  0
   -6.2540    0.1531    2.2716 C   0  0  0  0  0  0  0  0  0  0  0  0
   -6.9038    0.7377   -0.0710 C   0  0  0  0  0  0  0  0  0  0  0  0
   -3.6841    0.7927   -1.3019 C   0  0  0  0  0  0  0  0  0  0  0  0
   -2.2412    1.0128   -0.7979 C   0  0  0  0  0  0  0  0  0  0  0  0
    0.3476    1.1510   -0.1012 N   0  0  0  0  0  0  0  0  0  0  0  0
    1.6749    1.3604    0.2593 N   0  0  0  0  0  0  0  0  0  0  0  0
    6.1836    1.0627    0.6915 N   0  0  0  0  0  0  0  0  0  0  0  0
    9.0284    1.2547    2.0448 H   0  0  0  0  0  0  0  0  0  0  0  0
    9.2694    1.6275    0.3167 H   0  0  0  0  0  0  0  0  0  0  0  0
    8.1138    2.5661    1.2793 H   0  0  0  0  0  0  0  0  0  0  0  0
    8.7885   -1.0938    0.5806 H   0  0  0  0  0  0  0  0  0  0  0  0
    6.9375   -2.6591    0.0181 H   0  0  0  0  0  0  0  0  0  0  0  0
    4.6320   -1.8266   -0.0775 H   0  0  0  0  0  0  0  0  0  0  0  0
    3.9770    1.7504    0.7072 H   0  0  0  0  0  0  0  0  0  0  0  0
    3.0546   -1.2381   -1.3079 H   0  0  0  0  0  0  0  0  0  0  0  0
    0.7324   -1.6103   -1.9226 H   0  0  0  0  0  0  0  0  0  0  0  0
   -1.8727   -1.5431    0.2771 H   0  0  0  0  0  0  0  0  0  0  0  0
   -1.2969   -2.2593   -1.2434 H   0  0  0  0  0  0  0  0  0  0  0  0
   -3.3619   -1.5997   -2.4207 H   0  0  0  0  0  0  0  0  0  0  0  0
   -3.7461   -2.5837   -1.0049 H   0  0  0  0  0  0  0  0  0  0  0  0
   -5.0943    1.3452    0.9535 H   0  0  0  0  0  0  0  0  0  0  0  0
   -6.8164    1.0042    2.6700 H   0  0  0  0  0  0  0  0  0  0  0  0
   -6.9149   -0.7209    2.2735 H   0  0  0  0  0  0  0  0  0  0  0  0
   -5.4264   -0.0543    2.9587 H   0  0  0  0  0  0  0  0  0  0  0  0
   -6.5697    0.9936   -1.0809 H   0  0  0  0  0  0  0  0  0  0  0  0
   -7.5534   -0.1405   -0.1590 H   0  0  0  0  0  0  0  0  0  0  0  0
   -7.5081    1.5718    0.3009 H   0  0  0  0  0  0  0  0  0  0  0  0
   -3.7017    0.7896   -2.3985 H   0  0  0  0  0  0  0  0  0  0  0  0
   -4.3210    1.6132   -0.9689 H   0  0  0  0  0  0  0  0  0  0  0  0
   -1.8737    1.9568   -1.2190 H   0  0  0  0  0  0  0  0  0  0  0  0
   -2.2558    1.0971    0.2973 H   0  0  0  0  0  0  0  0  0  0  0  0
  1  2  1  0
  2  3  2  0
  3  4  1  0
  4  5  2  0
  5  6  1  0
  6  7  1  0
  7  8  1  0
  8  9  2  0
  9 10  1  0
 10 11  2  0
 11 12  1  0
 12 13  1  0
 13 14  1  0
 14 15  1  0
 15 16  1  0
 16 17  2  0
 16 18  1  0
 18 19  1  0
 18 20  1  0
 15 21  1  0
 21 22  1  0
 11 23  1  0
 23 24  2  0
  6 25  2  0
 25  2  1  0
 24  8  1  0
 22 12  1  0
  1 26  1  0
  1 27  1  0
  1 28  1  0
  3 29  1  0
  4 30  1  0
  5 31  1  0
  7 32  1  0
  9 33  1  0
 10 34  1  0
 13 35  1  0
 13 36  1  0
 14 37  1  0
 14 38  1  0
 18 39  1  0
 19 40  1  0
 19 41  1  0
 19 42  1  0
 20 43  1  0
 20 44  1  0
 20 45  1  0
 21 46  1  0
 21 47  1  0
 22 48  1  0
 22 49  1  0
M  END
$$$$
