
     RDKit          3D

 55 59  0  0  0  0  0  0  0  0999 V2000
    4.9661    3.2573    1.4182 C   0  0  0  0  0  0  0  0  0  0  0  0
    4.6376    2.9852   -0.0421 C   0  0  0  0  0  0  0  0  0  0  0  0
    3.7442    1.7989   -0.2131 C   0  0  0  0  0  0  0  0  0  0  0  0
    2.4362    1.9897   -0.4175 N   0  0  0  0  0  0  0  0  0  0  0  0
    1.9028    0.7410   -0.4949 N   0  0  0  0  0  0  0  0  0  0  0  0
    2.8817   -0.2482   -0.3307 C   0  0  0  0  0  0  0  0  0  0  0  0
    2.5731   -1.5840   -0.3612 N   0  0  0  0  0  0  0  0  0  0  0  0
    1.3218   -1.8769   -0.5585 C   0  0  0  0  0  0  0  0  0  0  0  0
    0.2161   -0.9047   -0.7459 C   0  0  0  0  0  0  0  0  0  0  0  0
   -1.1919   -1.3228   -0.9591 C   0  0  0  0  0  0  0  0  0  0  0  0
   -1.4859   -2.5149   -0.9598 O   0  0  0  0  0  0  0  0  0  0  0  0
   -2.1119   -0.2870   -1.1423 N   0  0  0  0  0  0  0  0  0  0  0  0
   -3.5241   -0.6303   -1.3452 C   0  0  0  0  0  0  0  0  0  0  0  0
   -4.2585   -0.8647   -0.0087 C   0  0  0  0  0  0  0  0  0  0  0  0
   -5.6878   -1.1912   -0.1631 N   0  0  0  0  0  0  0  0  0  0  0  0
   -6.4558   -0.0757   -0.7604 C   0  0  0  0  0  0  0  0  0  0  0  0
   -7.9401   -0.1158   -0.3658 C   0  0  0  0  0  0  0  0  0  0  0  0
   -8.1344    0.0562    1.0443 O   0  0  0  0  0  0  0  0  0  0  0  0
   -7.0624   -0.4828    1.8302 C   0  0  0  0  0  0  0  0  0  0  0  0
   -6.2940   -1.6092    1.1214 C   0  0  0  0  0  0  0  0  0  0  0  0
   -1.7427    1.0460   -1.0828 C   0  0  0  0  0  0  0  0  0  0  0  0
   -0.4708    1.4052   -0.8745 C   0  0  0  0  0  0  0  0  0  0  0  0
    0.5575    0.3962   -0.7044 C   0  0  0  0  0  0  0  0  0  0  0  0
    4.0800    0.4214   -0.1637 C   0  0  0  0  0  0  0  0  0  0  0  0
    5.3588   -0.2363    0.0322 C   0  0  0  0  0  0  0  0  0  0  0  0
    6.4381    0.0516   -0.8154 C   0  0  0  0  0  0  0  0  0  0  0  0
    7.6734   -0.5697   -0.6179 C   0  0  0  0  0  0  0  0  0  0  0  0
    7.8259   -1.4779    0.4232 C   0  0  0  0  0  0  0  0  0  0  0  0
    9.0115   -2.0722    0.6110 F   0  0  0  0  0  0  0  0  0  0  0  0
    6.7665   -1.7803    1.2697 C   0  0  0  0  0  0  0  0  0  0  0  0
    5.5308   -1.1600    1.0739 C   0  0  0  0  0  0  0  0  0  0  0  0
    5.4943    2.4123    1.8723 H   0  0  0  0  0  0  0  0  0  0  0  0
    4.0561    3.4363    2.0008 H   0  0  0  0  0  0  0  0  0  0  0  0
    5.6052    4.1417    1.5045 H   0  0  0  0  0  0  0  0  0  0  0  0
    4.1585    3.8748   -0.4699 H   0  0  0  0  0  0  0  0  0  0  0  0
    5.5662    2.8406   -0.6044 H   0  0  0  0  0  0  0  0  0  0  0  0
    1.0333   -2.9412   -0.5918 H   0  0  0  0  0  0  0  0  0  0  0  0
   -3.9956    0.1715   -1.9252 H   0  0  0  0  0  0  0  0  0  0  0  0
   -3.5792   -1.5401   -1.9558 H   0  0  0  0  0  0  0  0  0  0  0  0
   -4.1337    0.0106    0.6427 H   0  0  0  0  0  0  0  0  0  0  0  0
   -3.7564   -1.6989    0.4982 H   0  0  0  0  0  0  0  0  0  0  0  0
   -6.3713   -0.1253   -1.8512 H   0  0  0  0  0  0  0  0  0  0  0  0
   -6.0463    0.8880   -0.4301 H   0  0  0  0  0  0  0  0  0  0  0  0
   -8.4851    0.6881   -0.8710 H   0  0  0  0  0  0  0  0  0  0  0  0
   -8.4036   -1.0623   -0.6680 H   0  0  0  0  0  0  0  0  0  0  0  0
   -6.3872    0.3403    2.0914 H   0  0  0  0  0  0  0  0  0  0  0  0
   -7.4973   -0.8544    2.7636 H   0  0  0  0  0  0  0  0  0  0  0  0
   -7.0011   -2.4164    0.8913 H   0  0  0  0  0  0  0  0  0  0  0  0
   -5.5501   -2.0428    1.7999 H   0  0  0  0  0  0  0  0  0  0  0  0
   -2.5232    1.7911   -1.2126 H   0  0  0  0  0  0  0  0  0  0  0  0
   -0.1869    2.4539   -0.8307 H   0  0  0  0  0  0  0  0  0  0  0  0
    6.3222    0.7465   -1.6435 H   0  0  0  0  0  0  0  0  0  0  0  0
    8.5128   -0.3562   -1.2717 H   0  0  0  0  0  0  0  0  0  0  0  0
    6.9048   -2.4976    2.0720 H   0  0  0  0  0  0  0  0  0  0  0  0
    4.7017   -1.4047    1.7344 H   0  0  0  0  0  0  0  0  0  0  0  0
  1  2  1  0
  2  3  1  0
  3  4  2  0
  4  5  1  0
  5  6  1  0
  6  7  1  0
  7  8  2  0
  8  9  1  0
  9 10  1  0
 10 11  2  0
 10 12  1  0
 12 13  1  0
 13 14  1  0
 14 15  1  0
 15 16  1  0
 16 17  1  0
 17 18  1  0
 18 19  1  0
 19 20  1  0
 12 21  1  0
 21 22  2  0
 22 23  1  0
  6 24  2  0
 24 25  1  0
 25 26  2  0
 26 27  1  0
 27 28  2  0
 28 29  1  0
 28 30  1  0
 30 31  2  0
 24  3  1  0
 31 25  1  0
 23  5  1  0
 23  9  2  0
 20 15  1  0
  1 32  1  0
  1 33  1  0
  1 34  1  0
  2 35  1  0
  2 36  1  0
  8 37  1  0
 13 38  1  0
 13 39  1  0
 14 40  1  0
 14 41  1  0
 16 42  1  0
 16 43  1  0
 17 44  1  0
 17 45  1  0
 19 46  1  0
 19 47  1  0
 20 48  1  0
 20 49  1  0
 21 50  1  0
 22 51  1  0
 26 52  1  0
 27 53  1  0
 30 54  1  0
 31 55  1  0
M  END
$$$$
