
     RDKit          3D

 42 44  0  0  0  0  0  0  0  0999 V2000
    1.6789   -1.5767   -2.6641 C   0  0  0  0  0  0  0  0  0  0  0  0
    2.3162   -0.3336   -2.0694 C   0  0  0  0  0  0  0  0  0  0  0  0
    1.8932   -0.2319   -0.7130 O   0  0  0  0  0  0  0  0  0  0  0  0
    2.2376    0.8949   -0.0118 C   0  0  0  0  0  0  0  0  0  0  0  0
    3.1479    1.8583   -0.4568 C   0  0  0  0  0  0  0  0  0  0  0  0
    3.4295    2.9782    0.3346 C   0  0  0  0  0  0  0  0  0  0  0  0
    4.3623    3.9647   -0.1263 C   0  0  0  0  0  0  0  0  0  0  0  0
    5.1140    4.7638   -0.5043 N   0  0  0  0  0  0  0  0  0  0  0  0
    2.8043    3.1325    1.5747 C   0  0  0  0  0  0  0  0  0  0  0  0
    1.8977    2.1713    2.0282 C   0  0  0  0  0  0  0  0  0  0  0  0
    1.6067    1.0556    1.2382 C   0  0  0  0  0  0  0  0  0  0  0  0
    0.7416    0.0581    1.6112 O   0  0  0  0  0  0  0  0  0  0  0  0
   -0.2900    0.4063    2.5217 C   0  0  0  0  0  0  0  0  0  0  0  0
   -1.2855   -0.7372    2.6699 C   0  0  0  0  0  0  0  0  0  0  0  0
   -1.4577   -1.2285    3.7954 O   0  0  0  0  0  0  0  0  0  0  0  0
   -1.9916   -1.2161    1.5858 N   0  0  0  0  0  0  0  0  0  0  0  0
   -2.8467   -2.3989    1.7641 C   0  0  0  0  0  0  0  0  0  0  0  0
   -3.3126   -2.8459    0.3802 C   0  0  0  0  0  0  0  0  0  0  0  0
   -2.9260   -1.6705   -0.4583 C   0  0  0  0  0  0  0  0  0  0  0  0
   -3.2427   -1.4756   -1.7964 C   0  0  0  0  0  0  0  0  0  0  0  0
   -2.7668   -0.3302   -2.4281 C   0  0  0  0  0  0  0  0  0  0  0  0
   -1.9882    0.5910   -1.7183 C   0  0  0  0  0  0  0  0  0  0  0  0
   -1.6729    0.3787   -0.3690 C   0  0  0  0  0  0  0  0  0  0  0  0
   -2.1370   -0.7629    0.2601 C   0  0  0  0  0  0  0  0  0  0  0  0
    1.9741   -2.4683   -2.1008 H   0  0  0  0  0  0  0  0  0  0  0  0
    0.5869   -1.5137   -2.6104 H   0  0  0  0  0  0  0  0  0  0  0  0
    1.9742   -1.7046   -3.7092 H   0  0  0  0  0  0  0  0  0  0  0  0
    3.4066   -0.4307   -2.1177 H   0  0  0  0  0  0  0  0  0  0  0  0
    1.9900    0.5433   -2.6407 H   0  0  0  0  0  0  0  0  0  0  0  0
    3.6555    1.7538   -1.4112 H   0  0  0  0  0  0  0  0  0  0  0  0
    3.0252    3.9954    2.2011 H   0  0  0  0  0  0  0  0  0  0  0  0
    1.4506    2.3092    3.0076 H   0  0  0  0  0  0  0  0  0  0  0  0
    0.1489    0.5676    3.5144 H   0  0  0  0  0  0  0  0  0  0  0  0
   -0.8292    1.3150    2.2335 H   0  0  0  0  0  0  0  0  0  0  0  0
   -2.2992   -3.1920    2.2861 H   0  0  0  0  0  0  0  0  0  0  0  0
   -3.6973   -2.1067    2.3927 H   0  0  0  0  0  0  0  0  0  0  0  0
   -2.7693   -3.7382    0.0524 H   0  0  0  0  0  0  0  0  0  0  0  0
   -4.3889   -3.0395    0.3612 H   0  0  0  0  0  0  0  0  0  0  0  0
   -3.8427   -2.1979   -2.3409 H   0  0  0  0  0  0  0  0  0  0  0  0
   -2.9986   -0.1504   -3.4749 H   0  0  0  0  0  0  0  0  0  0  0  0
   -1.6215    1.4838   -2.2197 H   0  0  0  0  0  0  0  0  0  0  0  0
   -1.0776    1.1284    0.1280 H   0  0  0  0  0  0  0  0  0  0  0  0
  1  2  1  0
  2  3  1  0
  3  4  1  0
  4  5  2  0
  5  6  1  0
  6  7  1  0
  7  8  3  0
  6  9  2  0
  9 10  1  0
 10 11  2  0
 11 12  1  0
 12 13  1  0
 13 14  1  0
 14 15  2  0
 14 16  1  0
 16 17  1  0
 17 18  1  0
 18 19  1  0
 19 20  2  0
 20 21  1  0
 21 22  2  0
 22 23  1  0
 23 24  2  0
 11  4  1  0
 24 16  1  0
 24 19  1  0
  1 25  1  0
  1 26  1  0
  1 27  1  0
  2 28  1  0
  2 29  1  0
  5 30  1  0
  9 31  1  0
 10 32  1  0
 13 33  1  0
 13 34  1  0
 17 35  1  0
 17 36  1  0
 18 37  1  0
 18 38  1  0
 20 39  1  0
 21 40  1  0
 22 41  1  0
 23 42  1  0
M  END
$$$$
