
     RDKit          3D

 44 46  0  0  0  0  0  0  0  0999 V2000
    7.5048    0.1866   -0.2200 C   0  0  0  0  0  0  0  0  0  0  0  0
    6.0488    0.5690   -0.4024 C   0  0  0  0  0  0  0  0  0  0  0  0
    5.0315   -0.1109    0.9060 S   0  0  0  0  0  6  0  0  0  0  0  0
    5.4335    0.5098    2.1500 O   0  0  0  0  0  0  0  0  0  0  0  0
    4.9685   -1.5496    0.7627 O   0  0  0  0  0  0  0  0  0  0  0  0
    3.5007    0.5057    0.4954 N   0  0  0  0  0  0  0  0  0  0  0  0
    2.8178   -0.1522   -0.6673 C   0  0  0  0  0  0  0  0  0  0  0  0
    1.7497   -1.1730   -0.2267 C   0  0  0  0  0  0  0  0  0  0  0  0
    0.7278   -0.5548    0.6395 N   0  0  0  0  0  0  0  0  0  0  0  0
   -0.6096   -0.6581    0.2631 C   0  0  0  0  0  0  0  0  0  0  0  0
   -1.1449   -1.8633   -0.1704 C   0  0  0  0  0  0  0  0  0  0  0  0
   -2.4952   -1.9521   -0.5225 C   0  0  0  0  0  0  0  0  0  0  0  0
   -3.3091   -0.8321   -0.4385 C   0  0  0  0  0  0  0  0  0  0  0  0
   -4.6733   -0.9668   -0.7875 N   0  0  0  0  0  0  0  0  0  0  0  0
   -5.7239   -0.0389   -0.6113 C   0  0  0  0  0  0  0  0  0  0  0  0
   -5.7164    0.9449    0.3772 C   0  0  0  0  0  0  0  0  0  0  0  0
   -6.8215    1.7718    0.5152 C   0  0  0  0  0  0  0  0  0  0  0  0
   -7.9353    1.6738   -0.2394 N   0  0  0  0  0  0  0  0  0  0  0  0
   -7.9441    0.6955   -1.1652 C   0  0  0  0  0  0  0  0  0  0  0  0
   -6.8865   -0.1767   -1.3772 C   0  0  0  0  0  0  0  0  0  0  0  0
   -2.7776    0.3186    0.0042 N   0  0  0  0  0  0  0  0  0  0  0  0
   -1.4351    0.4020    0.3591 N   0  0  0  0  0  0  0  0  0  0  0  0
    1.1080    0.7219    1.2730 C   0  0  0  0  0  0  0  0  0  0  0  0
    2.5908    0.6933    1.6811 C   0  0  0  0  0  0  0  0  0  0  0  0
    7.8950    0.5605    0.7319 H   0  0  0  0  0  0  0  0  0  0  0  0
    8.1125    0.6072   -1.0269 H   0  0  0  0  0  0  0  0  0  0  0  0
    7.6299   -0.9009   -0.2282 H   0  0  0  0  0  0  0  0  0  0  0  0
    5.9358    1.6568   -0.3745 H   0  0  0  0  0  0  0  0  0  0  0  0
    5.6795    0.1876   -1.3573 H   0  0  0  0  0  0  0  0  0  0  0  0
    3.5437   -0.6437   -1.3226 H   0  0  0  0  0  0  0  0  0  0  0  0
    2.3556    0.6418   -1.2672 H   0  0  0  0  0  0  0  0  0  0  0  0
    1.3157   -1.6109   -1.1333 H   0  0  0  0  0  0  0  0  0  0  0  0
    2.2221   -1.9876    0.3342 H   0  0  0  0  0  0  0  0  0  0  0  0
   -0.5315   -2.7574   -0.2069 H   0  0  0  0  0  0  0  0  0  0  0  0
   -2.9018   -2.9074   -0.8377 H   0  0  0  0  0  0  0  0  0  0  0  0
   -4.7540   -1.4720   -1.6629 H   0  0  0  0  0  0  0  0  0  0  0  0
   -4.8754    1.0791    1.0477 H   0  0  0  0  0  0  0  0  0  0  0  0
   -6.8382    2.5541    1.2687 H   0  0  0  0  0  0  0  0  0  0  0  0
   -8.8557    0.6217   -1.7511 H   0  0  0  0  0  0  0  0  0  0  0  0
   -6.9794   -0.9473   -2.1337 H   0  0  0  0  0  0  0  0  0  0  0  0
    0.9375    1.5597    0.5839 H   0  0  0  0  0  0  0  0  0  0  0  0
    0.5029    0.8883    2.1727 H   0  0  0  0  0  0  0  0  0  0  0  0
    2.8518    1.6397    2.1669 H   0  0  0  0  0  0  0  0  0  0  0  0
    2.7445   -0.1227    2.3981 H   0  0  0  0  0  0  0  0  0  0  0  0
  1  2  1  0
  2  3  1  0
  3  4  2  0
  3  5  2  0
  3  6  1  0
  6  7  1  0
  7  8  1  0
  8  9  1  0
  9 10  1  0
 10 11  2  0
 11 12  1  0
 12 13  2  0
 13 14  1  0
 14 15  1  0
 15 16  2  0
 16 17  1  0
 17 18  2  0
 18 19  1  0
 19 20  2  0
 13 21  1  0
 21 22  2  0
  9 23  1  0
 23 24  1  0
 24  6  1  0
 22 10  1  0
 20 15  1  0
  1 25  1  0
  1 26  1  0
  1 27  1  0
  2 28  1  0
  2 29  1  0
  7 30  1  0
  7 31  1  0
  8 32  1  0
  8 33  1  0
 11 34  1  0
 12 35  1  0
 14 36  1  0
 16 37  1  0
 17 38  1  0
 19 39  1  0
 20 40  1  0
 23 41  1  0
 23 42  1  0
 24 43  1  0
 24 44  1  0
M  END
$$$$
