
     RDKit          3D

 45 47  0  0  0  0  0  0  0  0999 V2000
   -2.8557    2.2003   -0.1609 C   0  0  0  0  0  0  0  0  0  0  0  0
   -2.7758    0.6986   -0.0402 C   0  0  0  0  0  0  0  0  0  0  0  0
   -1.6693   -0.0231   -0.3280 C   0  0  0  0  0  0  0  0  0  0  0  0
   -0.3731    0.5312   -0.8776 C   0  0  0  0  0  0  0  0  0  0  0  0
    0.6506    0.6897    0.2477 C   0  0  0  0  0  0  0  0  0  0  0  0
    0.2964    1.1198    1.3528 O   0  0  0  0  0  0  0  0  0  0  0  0
    1.9876    0.4184   -0.0383 N   0  0  0  0  0  0  0  0  0  0  0  0
    2.4471   -0.2575   -1.2548 C   0  0  0  0  0  0  0  0  0  0  0  0
    3.8868   -0.7599   -1.1561 C   0  0  0  0  0  0  0  0  0  0  0  0
    4.8541    0.3584   -0.7435 C   0  0  0  0  0  0  0  0  0  0  0  0
    6.1727   -0.2340   -0.2653 C   0  0  0  0  0  0  0  0  0  0  0  0
    6.1498   -0.9037    0.9203 N   0  0  0  0  0  0  0  0  0  0  0  0
    7.2170   -0.1401   -0.9002 O   0  0  0  0  0  0  0  0  0  0  0  0
    4.2536    1.3198    0.2991 C   0  0  0  0  0  0  0  0  0  0  0  0
    2.9968    0.7531    0.9620 C   0  0  0  0  0  0  0  0  0  0  0  0
   -1.6194   -1.4983   -0.1224 C   0  0  0  0  0  0  0  0  0  0  0  0
   -0.6109   -2.1459   -0.3954 O   0  0  0  0  0  0  0  0  0  0  0  0
   -2.7521   -2.1153    0.3744 O   0  0  0  0  0  0  0  0  0  0  0  0
   -3.9266   -1.3885    0.6338 C   0  0  0  0  0  0  0  0  0  0  0  0
   -5.0251   -2.1272    1.0827 C   0  0  0  0  0  0  0  0  0  0  0  0
   -6.2200   -1.4679    1.3408 C   0  0  0  0  0  0  0  0  0  0  0  0
   -7.2842   -2.2071    1.7698 O   0  0  0  0  0  0  0  0  0  0  0  0
   -6.3199   -0.0926    1.1593 C   0  0  0  0  0  0  0  0  0  0  0  0
   -5.2048    0.6313    0.7117 C   0  0  0  0  0  0  0  0  0  0  0  0
   -3.9818   -0.0082    0.4410 C   0  0  0  0  0  0  0  0  0  0  0  0
   -3.5649    2.4847   -0.9518 H   0  0  0  0  0  0  0  0  0  0  0  0
   -1.8990    2.6809   -0.3924 H   0  0  0  0  0  0  0  0  0  0  0  0
   -3.1831    2.6468    0.7843 H   0  0  0  0  0  0  0  0  0  0  0  0
   -0.4987    1.5153   -1.3355 H   0  0  0  0  0  0  0  0  0  0  0  0
   -0.0237   -0.1038   -1.6926 H   0  0  0  0  0  0  0  0  0  0  0  0
    1.7947   -1.1168   -1.4564 H   0  0  0  0  0  0  0  0  0  0  0  0
    2.3420    0.4559   -2.0830 H   0  0  0  0  0  0  0  0  0  0  0  0
    4.2015   -1.1826   -2.1213 H   0  0  0  0  0  0  0  0  0  0  0  0
    3.9217   -1.5951   -0.4390 H   0  0  0  0  0  0  0  0  0  0  0  0
    5.0945    0.9584   -1.6357 H   0  0  0  0  0  0  0  0  0  0  0  0
    5.2971   -1.2208    1.3686 H   0  0  0  0  0  0  0  0  0  0  0  0
    7.0090   -1.3655    1.1947 H   0  0  0  0  0  0  0  0  0  0  0  0
    4.9883    1.5938    1.0629 H   0  0  0  0  0  0  0  0  0  0  0  0
    3.9788    2.2549   -0.2082 H   0  0  0  0  0  0  0  0  0  0  0  0
    3.2210   -0.1632    1.5265 H   0  0  0  0  0  0  0  0  0  0  0  0
    2.6019    1.4855    1.6787 H   0  0  0  0  0  0  0  0  0  0  0  0
   -4.9515   -3.2013    1.2246 H   0  0  0  0  0  0  0  0  0  0  0  0
   -8.0521   -1.6193    1.8809 H   0  0  0  0  0  0  0  0  0  0  0  0
   -7.2489    0.4359    1.3585 H   0  0  0  0  0  0  0  0  0  0  0  0
   -5.3222    1.7050    0.5787 H   0  0  0  0  0  0  0  0  0  0  0  0
  1  2  1  0
  2  3  2  0
  3  4  1  0
  4  5  1  0
  5  6  2  0
  5  7  1  0
  7  8  1  0
  8  9  1  0
  9 10  1  0
 10 11  1  0
 11 12  1  0
 11 13  2  0
 10 14  1  0
 14 15  1  0
  3 16  1  0
 16 17  2  0
 16 18  1  0
 18 19  1  0
 19 20  2  0
 20 21  1  0
 21 22  1  0
 21 23  2  0
 23 24  1  0
 24 25  2  0
 25  2  1  0
 15  7  1  0
 25 19  1  0
  1 26  1  0
  1 27  1  0
  1 28  1  0
  4 29  1  0
  4 30  1  0
  8 31  1  0
  8 32  1  0
  9 33  1  0
  9 34  1  0
 10 35  1  0
 12 36  1  0
 12 37  1  0
 14 38  1  0
 14 39  1  0
 15 40  1  0
 15 41  1  0
 20 42  1  0
 22 43  1  0
 23 44  1  0
 24 45  1  0
M  END
$$$$
