
     RDKit          3D

 35 36  0  0  0  0  0  0  0  0999 V2000
    0.1685    3.3503    0.4951 C   0  0  0  0  0  0  0  0  0  0  0  0
   -0.0626    2.5988   -0.6988 O   0  0  0  0  0  0  0  0  0  0  0  0
   -1.0040    1.6227   -0.4834 C   0  0  0  0  0  0  0  0  0  0  0  0
   -2.3314    1.9818   -0.2702 C   0  0  0  0  0  0  0  0  0  0  0  0
   -3.2875    0.9937   -0.0595 C   0  0  0  0  0  0  0  0  0  0  0  0
   -2.9309   -0.3616   -0.0543 C   0  0  0  0  0  0  0  0  0  0  0  0
   -3.9134   -1.3365    0.1849 C   0  0  0  0  0  0  0  0  0  0  0  0
   -3.5802   -2.6875    0.2084 C   0  0  0  0  0  0  0  0  0  0  0  0
   -4.9182   -3.9819    0.5358 Br  0  0  0  0  0  0  0  0  0  0  0  0
   -2.2690   -3.0882   -0.0013 C   0  0  0  0  0  0  0  0  0  0  0  0
   -1.2836   -2.1270   -0.2447 C   0  0  0  0  0  0  0  0  0  0  0  0
   -1.5823   -0.7441   -0.2884 C   0  0  0  0  0  0  0  0  0  0  0  0
   -0.6146    0.2719   -0.5440 C   0  0  0  0  0  0  0  0  0  0  0  0
    0.8385   -0.0526   -0.8457 C   0  0  0  0  0  0  0  0  0  0  0  0
    1.7228   -0.1582    0.3933 C   0  0  0  0  0  0  0  0  0  0  0  0
    1.2713   -0.0245    1.5323 O   0  0  0  0  0  0  0  0  0  0  0  0
    3.0770   -0.4325    0.1734 N   0  0  0  0  0  0  0  0  0  0  0  0
    3.9670   -0.4154    1.3232 C   0  0  0  0  0  0  0  0  0  0  0  0
    3.7179   -0.3361   -1.1294 C   0  0  0  0  0  0  0  0  0  0  0  0
    1.0961    3.9144    0.3587 H   0  0  0  0  0  0  0  0  0  0  0  0
    0.2933    2.7014    1.3693 H   0  0  0  0  0  0  0  0  0  0  0  0
   -0.6406    4.0682    0.6637 H   0  0  0  0  0  0  0  0  0  0  0  0
   -2.6281    3.0262   -0.2744 H   0  0  0  0  0  0  0  0  0  0  0  0
   -4.3192    1.2949    0.1102 H   0  0  0  0  0  0  0  0  0  0  0  0
   -4.9447   -1.0381    0.3595 H   0  0  0  0  0  0  0  0  0  0  0  0
   -1.9963   -4.1396    0.0276 H   0  0  0  0  0  0  0  0  0  0  0  0
   -0.2664   -2.4838   -0.3825 H   0  0  0  0  0  0  0  0  0  0  0  0
    1.2495    0.7211   -1.5052 H   0  0  0  0  0  0  0  0  0  0  0  0
    0.8996   -0.9866   -1.4139 H   0  0  0  0  0  0  0  0  0  0  0  0
    3.4368   -0.6518    2.2497 H   0  0  0  0  0  0  0  0  0  0  0  0
    4.7589   -1.1561    1.1784 H   0  0  0  0  0  0  0  0  0  0  0  0
    4.4070    0.5826    1.4099 H   0  0  0  0  0  0  0  0  0  0  0  0
    3.0484   -0.6411   -1.9353 H   0  0  0  0  0  0  0  0  0  0  0  0
    4.5970   -0.9868   -1.1521 H   0  0  0  0  0  0  0  0  0  0  0  0
    4.0233    0.7019   -1.2905 H   0  0  0  0  0  0  0  0  0  0  0  0
  1  2  1  0
  2  3  1  0
  3  4  2  0
  4  5  1  0
  5  6  2  0
  6  7  1  0
  7  8  2  0
  8  9  1  0
  8 10  1  0
 10 11  2  0
 11 12  1  0
 12 13  2  0
 13 14  1  0
 14 15  1  0
 15 16  2  0
 15 17  1  0
 17 18  1  0
 17 19  1  0
 13  3  1  0
 12  6  1  0
  1 20  1  0
  1 21  1  0
  1 22  1  0
  4 23  1  0
  5 24  1  0
  7 25  1  0
 10 26  1  0
 11 27  1  0
 14 28  1  0
 14 29  1  0
 18 30  1  0
 18 31  1  0
 18 32  1  0
 19 33  1  0
 19 34  1  0
 19 35  1  0
M  END
$$$$
