
     RDKit          3D

 26 27  0  0  0  0  0  0  0  0999 V2000
    5.5759   -0.9978    0.8428 N   0  0  0  0  0  0  0  0  0  0  0  0
    5.3626    0.0997    0.5312 C   0  0  0  0  0  0  0  0  0  0  0  0
    5.0989    1.5005    0.1800 C   0  0  0  0  0  0  0  0  0  0  0  0
    3.6897    1.7365   -0.9395 S   0  0  0  0  0  0  0  0  0  0  0  0
    2.3962    0.9915   -0.0277 C   0  0  0  0  0  0  0  0  0  0  0  0
    1.7059    0.0074   -0.5518 N   0  0  0  0  0  0  0  0  0  0  0  0
    0.7287   -0.4185    0.3554 C   0  0  0  0  0  0  0  0  0  0  0  0
   -0.3627   -1.7179   -0.0294 S   0  0  0  0  0  6  0  0  0  0  0  0
    0.0683   -2.2414   -1.3099 O   0  0  0  0  0  0  0  0  0  0  0  0
   -0.4028   -2.5389    1.1646 O   0  0  0  0  0  0  0  0  0  0  0  0
   -1.9342   -0.9366   -0.2615 C   0  0  0  0  0  0  0  0  0  0  0  0
   -2.9795   -1.1850    0.6319 C   0  0  0  0  0  0  0  0  0  0  0  0
   -4.2089   -0.5563    0.4365 C   0  0  0  0  0  0  0  0  0  0  0  0
   -4.3904    0.3044   -0.6479 C   0  0  0  0  0  0  0  0  0  0  0  0
   -3.3467    0.5371   -1.5455 C   0  0  0  0  0  0  0  0  0  0  0  0
   -2.1137   -0.0859   -1.3576 C   0  0  0  0  0  0  0  0  0  0  0  0
    0.6910    0.3093    1.5214 C   0  0  0  0  0  0  0  0  0  0  0  0
   -0.3569    0.1950    2.8744 Cl  0  0  0  0  0  0  0  0  0  0  0  0
    1.8960    1.5109    1.5265 S   0  0  0  0  0  0  0  0  0  0  0  0
    4.9413    2.0944    1.0862 H   0  0  0  0  0  0  0  0  0  0  0  0
    5.9804    1.9196   -0.3166 H   0  0  0  0  0  0  0  0  0  0  0  0
   -2.8493   -1.8594    1.4759 H   0  0  0  0  0  0  0  0  0  0  0  0
   -5.0294   -0.7404    1.1265 H   0  0  0  0  0  0  0  0  0  0  0  0
   -5.3528    0.7885   -0.7992 H   0  0  0  0  0  0  0  0  0  0  0  0
   -3.4994    1.1979   -2.3958 H   0  0  0  0  0  0  0  0  0  0  0  0
   -1.3082    0.0854   -2.0698 H   0  0  0  0  0  0  0  0  0  0  0  0
  1  2  3  0
  2  3  1  0
  3  4  1  0
  4  5  1  0
  5  6  2  0
  6  7  1  0
  7  8  1  0
  8  9  2  0
  8 10  2  0
  8 11  1  0
 11 12  2  0
 12 13  1  0
 13 14  2  0
 14 15  1  0
 15 16  2  0
  7 17  2  0
 17 18  1  0
 17 19  1  0
 19  5  1  0
 16 11  1  0
  3 20  1  0
  3 21  1  0
 12 22  1  0
 13 23  1  0
 14 24  1  0
 15 25  1  0
 16 26  1  0
M  END
$$$$
