
     RDKit          3D

 46 48  0  0  0  0  0  0  0  0999 V2000
    2.5975    0.9402    2.0736 C   0  0  0  0  0  0  0  0  0  0  0  0
    1.9381    0.9746    0.7749 N   0  0  0  0  0  0  0  0  0  0  0  0
    2.5674    1.7960   -0.2594 C   0  0  0  0  0  0  0  0  0  0  0  0
    3.8609    1.1987   -0.7638 C   0  0  0  0  0  0  0  0  0  0  0  0
    3.8406    0.1177   -1.6572 C   0  0  0  0  0  0  0  0  0  0  0  0
    5.0320   -0.4475   -2.1138 C   0  0  0  0  0  0  0  0  0  0  0  0
    6.2555    0.0601   -1.6812 C   0  0  0  0  0  0  0  0  0  0  0  0
    6.2891    1.1327   -0.7919 C   0  0  0  0  0  0  0  0  0  0  0  0
    5.0983    1.6995   -0.3338 C   0  0  0  0  0  0  0  0  0  0  0  0
    0.9327    0.0914    0.3912 C   0  0  0  0  0  0  0  0  0  0  0  0
    0.4633    0.0899   -0.7472 O   0  0  0  0  0  0  0  0  0  0  0  0
    0.4202   -0.8651    1.4548 C   0  0  0  0  0  0  0  0  0  0  0  0
   -0.5758   -1.8904    0.9113 C   0  0  0  0  0  0  0  0  0  0  0  0
   -1.8118   -1.3312    0.3922 N   0  0  0  0  0  0  0  0  0  0  0  0
   -2.6291   -0.4589    1.0751 C   0  0  0  0  0  0  0  0  0  0  0  0
   -2.5436   -0.1046    2.2381 O   0  0  0  0  0  0  0  0  0  0  0  0
   -3.6305    0.0273    0.0718 C   0  0  0  0  0  0  0  0  0  0  0  0
   -4.9842    0.5241    0.5360 C   0  0  0  0  0  0  0  0  0  0  0  0
   -5.9288    0.5843   -0.6476 C   0  0  0  0  0  0  0  0  0  0  0  0
   -5.6778   -0.0095   -1.8322 C   0  0  0  0  0  0  0  0  0  0  0  0
   -4.4558   -0.8661   -2.0982 C   0  0  0  0  0  0  0  0  0  0  0  0
   -3.7966   -1.2192   -0.7809 C   0  0  0  0  0  0  0  0  0  0  0  0
   -2.4020   -1.7754   -0.7743 C   0  0  0  0  0  0  0  0  0  0  0  0
   -1.9579   -2.5710   -1.5853 O   0  0  0  0  0  0  0  0  0  0  0  0
    3.4277    0.2294    2.0298 H   0  0  0  0  0  0  0  0  0  0  0  0
    1.9099    0.6326    2.8637 H   0  0  0  0  0  0  0  0  0  0  0  0
    2.9744    1.9368    2.3213 H   0  0  0  0  0  0  0  0  0  0  0  0
    2.7402    2.7949    0.1599 H   0  0  0  0  0  0  0  0  0  0  0  0
    1.8878    1.9422   -1.1073 H   0  0  0  0  0  0  0  0  0  0  0  0
    2.8905   -0.2875   -2.0030 H   0  0  0  0  0  0  0  0  0  0  0  0
    5.0030   -1.2833   -2.8081 H   0  0  0  0  0  0  0  0  0  0  0  0
    7.1826   -0.3801   -2.0388 H   0  0  0  0  0  0  0  0  0  0  0  0
    7.2441    1.5285   -0.4561 H   0  0  0  0  0  0  0  0  0  0  0  0
    5.1429    2.5354    0.3603 H   0  0  0  0  0  0  0  0  0  0  0  0
    1.2749   -1.4145    1.8659 H   0  0  0  0  0  0  0  0  0  0  0  0
   -0.0337   -0.2790    2.2592 H   0  0  0  0  0  0  0  0  0  0  0  0
   -0.1004   -2.4970    0.1319 H   0  0  0  0  0  0  0  0  0  0  0  0
   -0.8581   -2.5688    1.7252 H   0  0  0  0  0  0  0  0  0  0  0  0
   -3.1291    0.8264   -0.4973 H   0  0  0  0  0  0  0  0  0  0  0  0
   -4.8801    1.5230    0.9745 H   0  0  0  0  0  0  0  0  0  0  0  0
   -5.4081   -0.1246    1.3110 H   0  0  0  0  0  0  0  0  0  0  0  0
   -6.8434    1.1593   -0.5190 H   0  0  0  0  0  0  0  0  0  0  0  0
   -6.3860    0.1037   -2.6503 H   0  0  0  0  0  0  0  0  0  0  0  0
   -3.7681   -0.3292   -2.7615 H   0  0  0  0  0  0  0  0  0  0  0  0
   -4.7556   -1.7825   -2.6189 H   0  0  0  0  0  0  0  0  0  0  0  0
   -4.4169   -1.9634   -0.2560 H   0  0  0  0  0  0  0  0  0  0  0  0
  1  2  1  0
  2  3  1  0
  3  4  1  0
  4  5  2  0
  5  6  1  0
  6  7  2  0
  7  8  1  0
  8  9  2  0
  2 10  1  0
 10 11  2  0
 10 12  1  0
 12 13  1  0
 13 14  1  0
 14 15  1  0
 15 16  2  0
 15 17  1  0
 17 18  1  0
 18 19  1  0
 19 20  2  0
 20 21  1  0
 21 22  1  0
 22 23  1  0
 23 24  2  0
  9  4  1  0
 23 14  1  0
 22 17  1  0
  1 25  1  0
  1 26  1  0
  1 27  1  0
  3 28  1  0
  3 29  1  0
  5 30  1  0
  6 31  1  0
  7 32  1  0
  8 33  1  0
  9 34  1  0
 12 35  1  0
 12 36  1  0
 13 37  1  0
 13 38  1  0
 17 39  1  0
 18 40  1  0
 18 41  1  0
 19 42  1  0
 20 43  1  0
 21 44  1  0
 21 45  1  0
 22 46  1  0
M  END
$$$$
