
     RDKit          3D

 37 37  0  0  0  0  0  0  0  0999 V2000
    4.3961    1.7905   -0.6881 C   0  0  0  0  0  0  0  0  0  0  0  0
    4.4318    0.2749   -0.8277 C   0  0  0  0  0  0  0  0  0  0  0  0
    3.1314   -0.3969   -0.3914 C   0  0  0  0  0  0  0  0  0  0  0  0
    2.9747   -0.2919    1.0593 N   0  0  0  0  0  0  0  0  0  0  0  0
    2.0435   -1.4186    1.8816 S   0  0  0  0  0  6  0  0  0  0  0  0
    1.9172   -0.9511    3.2426 O   0  0  0  0  0  0  0  0  0  0  0  0
    2.5542   -2.7339    1.5648 O   0  0  0  0  0  0  0  0  0  0  0  0
    0.4525   -1.2485    1.1128 C   0  0  0  0  0  0  0  0  0  0  0  0
   -0.1126   -2.3167    0.4217 C   0  0  0  0  0  0  0  0  0  0  0  0
   -1.3651   -2.1638   -0.1803 C   0  0  0  0  0  0  0  0  0  0  0  0
   -2.0606   -0.9459   -0.1018 C   0  0  0  0  0  0  0  0  0  0  0  0
   -3.2839   -0.7393   -0.6893 O   0  0  0  0  0  0  0  0  0  0  0  0
   -3.8447   -1.7989   -1.4579 C   0  0  0  0  0  0  0  0  0  0  0  0
   -1.4826    0.1308    0.6076 C   0  0  0  0  0  0  0  0  0  0  0  0
   -2.1035    1.4873    0.7561 C   0  0  0  0  0  0  0  0  0  0  0  0
   -1.4088    2.4382    1.1046 O   0  0  0  0  0  0  0  0  0  0  0  0
   -3.4485    1.6048    0.4959 N   0  0  0  0  0  0  0  0  0  0  0  0
   -4.1121    2.8819    0.5042 C   0  0  0  0  0  0  0  0  0  0  0  0
   -0.2256   -0.0338    1.2167 C   0  0  0  0  0  0  0  0  0  0  0  0
    4.2968    2.0957    0.3578 H   0  0  0  0  0  0  0  0  0  0  0  0
    5.3231    2.2252   -1.0756 H   0  0  0  0  0  0  0  0  0  0  0  0
    3.5608    2.2169   -1.2528 H   0  0  0  0  0  0  0  0  0  0  0  0
    5.2756   -0.1226   -0.2514 H   0  0  0  0  0  0  0  0  0  0  0  0
    4.6162    0.0299   -1.8804 H   0  0  0  0  0  0  0  0  0  0  0  0
    3.1674   -1.4492   -0.6921 H   0  0  0  0  0  0  0  0  0  0  0  0
    2.2780    0.0744   -0.8897 H   0  0  0  0  0  0  0  0  0  0  0  0
    2.9764    0.6303    1.4928 H   0  0  0  0  0  0  0  0  0  0  0  0
    0.4075   -3.2703    0.3480 H   0  0  0  0  0  0  0  0  0  0  0  0
   -1.7701   -3.0232   -0.7066 H   0  0  0  0  0  0  0  0  0  0  0  0
   -4.0573   -2.6701   -0.8301 H   0  0  0  0  0  0  0  0  0  0  0  0
   -4.7957   -1.4447   -1.8674 H   0  0  0  0  0  0  0  0  0  0  0  0
   -3.1972   -2.0616   -2.3008 H   0  0  0  0  0  0  0  0  0  0  0  0
   -3.9142    0.8131    0.0641 H   0  0  0  0  0  0  0  0  0  0  0  0
   -3.7584    3.4900    1.3411 H   0  0  0  0  0  0  0  0  0  0  0  0
   -3.8939    3.3948   -0.4361 H   0  0  0  0  0  0  0  0  0  0  0  0
   -5.1879    2.7143    0.5931 H   0  0  0  0  0  0  0  0  0  0  0  0
    0.2195    0.7880    1.7766 H   0  0  0  0  0  0  0  0  0  0  0  0
  1  2  1  0
  2  3  1  0
  3  4  1  0
  4  5  1  0
  5  6  2  0
  5  7  2  0
  5  8  1  0
  8  9  2  0
  9 10  1  0
 10 11  2  0
 11 12  1  0
 12 13  1  0
 11 14  1  0
 14 15  1  0
 15 16  2  0
 15 17  1  0
 17 18  1  0
 14 19  2  0
 19  8  1  0
  1 20  1  0
  1 21  1  0
  1 22  1  0
  2 23  1  0
  2 24  1  0
  3 25  1  0
  3 26  1  0
  4 27  1  0
  9 28  1  0
 10 29  1  0
 13 30  1  0
 13 31  1  0
 13 32  1  0
 17 33  1  0
 18 34  1  0
 18 35  1  0
 18 36  1  0
 19 37  1  0
M  END
$$$$
