
     RDKit          3D

 48 49  0  0  0  0  0  0  0  0999 V2000
   -4.1236    2.5815    1.6163 C   0  0  0  0  0  0  0  0  0  0  0  0
   -3.2542    1.3349    1.5301 C   0  0  0  0  0  0  0  0  0  0  0  0
   -2.9233    0.8913    0.0843 C   0  0  1  0  0  0  0  0  0  0  0  0
   -2.1101    1.9687   -0.6499 C   0  0  0  0  0  0  0  0  0  0  0  0
   -2.2499   -0.5169    0.1157 C   0  0  1  0  0  0  0  0  0  0  0  0
   -2.1265   -1.1871   -1.2709 C   0  0  0  0  0  0  0  0  0  0  0  0
   -1.0931   -0.5850   -2.0464 O   0  0  0  0  0  0  0  0  0  0  0  0
   -0.9357   -0.4721    0.7601 N   0  0  0  0  0  0  0  0  0  0  0  0
   -0.4150   -1.5791    1.3996 C   0  0  0  0  0  0  0  0  0  0  0  0
   -1.0696   -2.5879    1.6511 O   0  0  0  0  0  0  0  0  0  0  0  0
    1.0533   -1.4400    1.7584 C   0  0  0  0  0  0  0  0  0  0  0  0
    1.9204   -1.8517    0.6119 C   0  0  0  0  0  0  0  0  0  0  0  0
    2.1523   -3.1760    0.1369 C   0  0  0  0  0  0  0  0  0  0  0  0
    1.5798   -4.4473    0.6503 C   0  0  0  0  0  0  0  0  0  0  0  0
    2.9833   -3.1873   -0.9150 N   0  0  0  0  0  0  0  0  0  0  0  0
    3.2681   -1.8919   -1.1219 N   0  0  0  0  0  0  0  0  0  0  0  0
    2.6508   -1.0413   -0.2417 C   0  0  0  0  0  0  0  0  0  0  0  0
    2.7787    0.4025   -0.3242 C   0  0  0  0  0  0  0  0  0  0  0  0
    2.0239    1.1236   -1.2547 C   0  0  0  0  0  0  0  0  0  0  0  0
    2.1235    2.5158   -1.3150 C   0  0  0  0  0  0  0  0  0  0  0  0
    2.9774    3.1870   -0.4425 C   0  0  0  0  0  0  0  0  0  0  0  0
    3.0996    4.9030   -0.5137 Cl  0  0  0  0  0  0  0  0  0  0  0  0
    3.7386    2.4761    0.4849 C   0  0  0  0  0  0  0  0  0  0  0  0
    3.6373    1.0840    0.5463 C   0  0  0  0  0  0  0  0  0  0  0  0
   -4.4414    2.7442    2.6524 H   0  0  0  0  0  0  0  0  0  0  0  0
   -3.5843    3.4765    1.2988 H   0  0  0  0  0  0  0  0  0  0  0  0
   -5.0173    2.4767    0.9976 H   0  0  0  0  0  0  0  0  0  0  0  0
   -2.3315    1.5071    2.1005 H   0  0  0  0  0  0  0  0  0  0  0  0
   -3.7916    0.5194    2.0367 H   0  0  0  0  0  0  0  0  0  0  0  0
   -3.8782    0.7821   -0.4517 H   0  0  0  0  0  0  0  0  0  0  0  0
   -2.6641    2.9120   -0.6988 H   0  0  0  0  0  0  0  0  0  0  0  0
   -1.9053    1.6852   -1.6851 H   0  0  0  0  0  0  0  0  0  0  0  0
   -1.1580    2.1686   -0.1452 H   0  0  0  0  0  0  0  0  0  0  0  0
   -2.8978   -1.1760    0.7202 H   0  0  0  0  0  0  0  0  0  0  0  0
   -1.8769   -2.2470   -1.1550 H   0  0  0  0  0  0  0  0  0  0  0  0
   -3.0652   -1.1142   -1.8267 H   0  0  0  0  0  0  0  0  0  0  0  0
   -1.0013   -1.1318   -2.8476 H   0  0  0  0  0  0  0  0  0  0  0  0
   -0.2604    0.1212    0.2896 H   0  0  0  0  0  0  0  0  0  0  0  0
    1.2582   -2.0511    2.6468 H   0  0  0  0  0  0  0  0  0  0  0  0
    1.2514   -0.3989    2.0502 H   0  0  0  0  0  0  0  0  0  0  0  0
    2.1723   -5.3104    0.3288 H   0  0  0  0  0  0  0  0  0  0  0  0
    0.5569   -4.5765    0.2799 H   0  0  0  0  0  0  0  0  0  0  0  0
    1.5563   -4.4495    1.7445 H   0  0  0  0  0  0  0  0  0  0  0  0
    3.8800   -1.6508   -1.8939 H   0  0  0  0  0  0  0  0  0  0  0  0
    1.3449    0.6092   -1.9312 H   0  0  0  0  0  0  0  0  0  0  0  0
    1.5291    3.0668   -2.0381 H   0  0  0  0  0  0  0  0  0  0  0  0
    4.4075    3.0001    1.1652 H   0  0  0  0  0  0  0  0  0  0  0  0
    4.2310    0.5321    1.2763 H   0  0  0  0  0  0  0  0  0  0  0  0
  1  2  1  0
  2  3  1  0
  3  4  1  0
  3  5  1  0
  5  6  1  0
  6  7  1  0
  5  8  1  0
  8  9  1  0
  9 10  2  0
  9 11  1  0
 11 12  1  0
 12 13  1  0
 13 14  1  0
 13 15  2  0
 15 16  1  0
 16 17  1  0
 17 18  1  0
 18 19  2  0
 19 20  1  0
 20 21  2  0
 21 22  1  0
 21 23  1  0
 23 24  2  0
 17 12  2  0
 24 18  1  0
  1 25  1  0
  1 26  1  0
  1 27  1  0
  2 28  1  0
  2 29  1  0
  3 30  1  6
  4 31  1  0
  4 32  1  0
  4 33  1  0
  5 34  1  1
  6 35  1  0
  6 36  1  0
  7 37  1  0
  8 38  1  0
 11 39  1  0
 11 40  1  0
 14 41  1  0
 14 42  1  0
 14 43  1  0
 16 44  1  0
 19 45  1  0
 20 46  1  0
 23 47  1  0
 24 48  1  0
M  END
$$$$
