
     RDKit          3D

 38 40  0  0  0  0  0  0  0  0999 V2000
    7.2463    0.1752    0.2872 C   0  0  0  0  0  0  0  0  0  0  0  0
    6.1968   -0.5963    0.8572 O   0  0  0  0  0  0  0  0  0  0  0  0
    4.9209   -0.2709    0.4899 C   0  0  0  0  0  0  0  0  0  0  0  0
    4.5522    0.7452   -0.3902 C   0  0  0  0  0  0  0  0  0  0  0  0
    3.1997    0.9776   -0.6851 C   0  0  0  0  0  0  0  0  0  0  0  0
    2.1977    0.1940   -0.1015 C   0  0  0  0  0  0  0  0  0  0  0  0
    0.8085    0.3981   -0.3754 N   0  0  0  0  0  0  0  0  0  0  0  0
   -0.1145   -0.4049    0.2242 N   0  0  0  0  0  0  0  0  0  0  0  0
   -1.3128    0.0125   -0.2010 C   0  0  0  0  0  0  0  0  0  0  0  0
   -2.5515   -0.6340    0.2524 C   0  0  0  0  0  0  0  0  0  0  0  0
   -2.5044   -1.8981    0.8604 C   0  0  0  0  0  0  0  0  0  0  0  0
   -3.6728   -2.5273    1.2889 C   0  0  0  0  0  0  0  0  0  0  0  0
   -4.9021   -1.8957    1.1160 C   0  0  0  0  0  0  0  0  0  0  0  0
   -4.9746   -0.6350    0.5206 C   0  0  0  0  0  0  0  0  0  0  0  0
   -6.2417   -0.1285    0.4184 O   0  0  0  0  0  0  0  0  0  0  0  0
   -6.3781    1.1695   -0.1447 C   0  0  0  0  0  0  0  0  0  0  0  0
   -3.8006   -0.0081    0.0904 C   0  0  0  0  0  0  0  0  0  0  0  0
   -1.1671    1.0953   -1.0995 C   0  0  0  0  0  0  0  0  0  0  0  0
    0.1844    1.3317   -1.2038 C   0  0  0  0  0  0  0  0  0  0  0  0
    0.8297    2.2439   -1.9283 O   0  0  0  0  0  0  0  0  0  0  0  0
    2.5765   -0.8275    0.7844 C   0  0  0  0  0  0  0  0  0  0  0  0
    3.9259   -1.0539    1.0741 C   0  0  0  0  0  0  0  0  0  0  0  0
    7.1666    1.2274    0.5796 H   0  0  0  0  0  0  0  0  0  0  0  0
    8.1935   -0.2080    0.6788 H   0  0  0  0  0  0  0  0  0  0  0  0
    7.2687    0.0675   -0.8023 H   0  0  0  0  0  0  0  0  0  0  0  0
    5.2900    1.3805   -0.8692 H   0  0  0  0  0  0  0  0  0  0  0  0
    2.9750    1.7819   -1.3767 H   0  0  0  0  0  0  0  0  0  0  0  0
   -1.5504   -2.4034    1.0018 H   0  0  0  0  0  0  0  0  0  0  0  0
   -3.6231   -3.5067    1.7569 H   0  0  0  0  0  0  0  0  0  0  0  0
   -5.8121   -2.3871    1.4516 H   0  0  0  0  0  0  0  0  0  0  0  0
   -7.4417    1.4265   -0.1391 H   0  0  0  0  0  0  0  0  0  0  0  0
   -5.8514    1.9183    0.4561 H   0  0  0  0  0  0  0  0  0  0  0  0
   -6.0374    1.1855   -1.1852 H   0  0  0  0  0  0  0  0  0  0  0  0
   -3.8438    0.9747   -0.3631 H   0  0  0  0  0  0  0  0  0  0  0  0
   -1.9486    1.6321   -1.6159 H   0  0  0  0  0  0  0  0  0  0  0  0
    0.1642    2.7589   -2.4186 H   0  0  0  0  0  0  0  0  0  0  0  0
    1.8325   -1.4615    1.2632 H   0  0  0  0  0  0  0  0  0  0  0  0
    4.1999   -1.8494    1.7628 H   0  0  0  0  0  0  0  0  0  0  0  0
  1  2  1  0
  2  3  1  0
  3  4  2  0
  4  5  1  0
  5  6  2  0
  6  7  1  0
  7  8  1  0
  8  9  2  0
  9 10  1  0
 10 11  2  0
 11 12  1  0
 12 13  2  0
 13 14  1  0
 14 15  1  0
 15 16  1  0
 14 17  2  0
  9 18  1  0
 18 19  2  0
 19 20  1  0
  6 21  1  0
 21 22  2  0
 22  3  1  0
 19  7  1  0
 17 10  1  0
  1 23  1  0
  1 24  1  0
  1 25  1  0
  4 26  1  0
  5 27  1  0
 11 28  1  0
 12 29  1  0
 13 30  1  0
 16 31  1  0
 16 32  1  0
 16 33  1  0
 17 34  1  0
 18 35  1  0
 20 36  1  0
 21 37  1  0
 22 38  1  0
M  END
$$$$
