
     RDKit          3D

 48 48  0  0  0  0  0  0  0  0999 V2000
    6.6704   -0.4490   -0.5762 C   0  0  0  0  0  0  0  0  0  0  0  0
    5.3232    0.1829   -0.8222 C   0  0  0  0  0  0  0  0  0  0  0  0
    4.5727    0.3305    0.3837 N   0  0  0  0  0  0  0  0  0  0  0  0
    4.1302   -0.8851    0.9897 C   0  0  0  0  0  0  0  0  0  0  0  0
    2.6978   -1.1954    0.8534 C   0  0  0  0  0  0  0  0  0  0  0  0
    1.8183   -0.0862    0.6904 N   0  0  0  0  0  0  0  0  0  0  0  0
    0.4933   -0.5765    0.4899 C   0  0  0  0  0  0  0  0  0  0  0  0
   -0.5775    0.4327    0.2657 C   0  0  0  0  0  0  0  0  0  0  0  0
   -0.4331    1.2237   -0.8484 O   0  0  0  0  0  0  0  0  0  0  0  0
   -1.8836   -0.3368    0.1028 C   0  0  0  0  0  0  0  0  0  0  0  0
   -2.9924    0.5164   -0.0171 O   0  0  0  0  0  0  0  0  0  0  0  0
   -4.2477   -0.0164   -0.1601 C   0  0  0  0  0  0  0  0  0  0  0  0
   -4.4106   -1.3774   -0.1809 C   0  0  0  0  0  0  0  0  0  0  0  0
   -5.6431   -1.9520   -0.3199 C   0  0  0  0  0  0  0  0  0  0  0  0
   -6.7567   -1.1520   -0.4436 C   0  0  0  0  0  0  0  0  0  0  0  0
   -6.6169    0.2250   -0.4257 C   0  0  0  0  0  0  0  0  0  0  0  0
   -5.3454    0.7880   -0.2821 C   0  0  0  0  0  0  0  0  0  0  0  0
   -5.2023    2.2492   -0.2699 C   0  0  0  0  0  0  0  0  0  0  0  0
    2.3112    0.8855   -0.2165 C   0  0  0  0  0  0  0  0  0  0  0  0
    3.6361    1.3905    0.3837 C   0  0  0  0  0  0  0  0  0  0  0  0
    0.6915    0.0000    0.0000 Cl  0  0  0  0  0  0  0  0  0  0  0  0
    6.9080   -0.4741    0.5067 H   0  0  0  0  0  0  0  0  0  0  0  0
    7.4886    0.1410   -1.0598 H   0  0  0  0  0  0  0  0  0  0  0  0
    6.7030   -1.4568   -1.0023 H   0  0  0  0  0  0  0  0  0  0  0  0
    4.7813   -0.3652   -1.6204 H   0  0  0  0  0  0  0  0  0  0  0  0
    5.5141    1.1994   -1.2280 H   0  0  0  0  0  0  0  0  0  0  0  0
    4.4490   -0.9020    2.0557 H   0  0  0  0  0  0  0  0  0  0  0  0
    4.7122   -1.7272    0.5081 H   0  0  0  0  0  0  0  0  0  0  0  0
    2.4734   -1.9178    0.0109 H   0  0  0  0  0  0  0  0  0  0  0  0
    2.3603   -1.7645    1.7659 H   0  0  0  0  0  0  0  0  0  0  0  0
    0.4377   -1.3909   -0.2695 H   0  0  0  0  0  0  0  0  0  0  0  0
    0.2163   -1.1081    1.4534 H   0  0  0  0  0  0  0  0  0  0  0  0
   -0.7101    1.0421    1.1906 H   0  0  0  0  0  0  0  0  0  0  0  0
   -0.6606    2.1802   -0.7212 H   0  0  0  0  0  0  0  0  0  0  0  0
   -2.0068   -1.0705    0.9216 H   0  0  0  0  0  0  0  0  0  0  0  0
   -1.8188   -0.9043   -0.8607 H   0  0  0  0  0  0  0  0  0  0  0  0
   -3.5495   -2.0201   -0.0850 H   0  0  0  0  0  0  0  0  0  0  0  0
   -5.7117   -3.0416   -0.3292 H   0  0  0  0  0  0  0  0  0  0  0  0
   -7.7177   -1.6586   -0.5512 H   0  0  0  0  0  0  0  0  0  0  0  0
   -7.5144    0.8104   -0.5254 H   0  0  0  0  0  0  0  0  0  0  0  0
   -5.9978    2.7526   -0.8937 H   0  0  0  0  0  0  0  0  0  0  0  0
   -4.2142    2.6255   -0.5557 H   0  0  0  0  0  0  0  0  0  0  0  0
   -5.4114    2.6104    0.7636 H   0  0  0  0  0  0  0  0  0  0  0  0
    2.5673    0.4261   -1.1929 H   0  0  0  0  0  0  0  0  0  0  0  0
    1.6992    1.8004   -0.3000 H   0  0  0  0  0  0  0  0  0  0  0  0
    3.4650    1.8111    1.3905 H   0  0  0  0  0  0  0  0  0  0  0  0
    3.9939    2.2047   -0.2707 H   0  0  0  0  0  0  0  0  0  0  0  0
   -0.6915    0.0000    0.0000 H   0  0  0  0  0  0  0  0  0  0  0  0
  1  2  1  0
  2  3  1  0
  3  4  1  0
  4  5  1  0
  5  6  1  0
  6  7  1  0
  7  8  1  0
  8  9  1  0
  8 10  1  0
 10 11  1  0
 11 12  1  0
 12 13  2  0
 13 14  1  0
 14 15  2  0
 15 16  1  0
 16 17  2  0
 17 18  1  0
  6 19  1  0
 19 20  1  0
 20  3  1  0
 17 12  1  0
  1 22  1  0
  1 23  1  0
  1 24  1  0
  2 25  1  0
  2 26  1  0
  4 27  1  0
  4 28  1  0
  5 29  1  0
  5 30  1  0
  7 31  1  0
  7 32  1  0
  8 33  1  0
  9 34  1  0
 10 35  1  0
 10 36  1  0
 13 37  1  0
 14 38  1  0
 15 39  1  0
 16 40  1  0
 18 41  1  0
 18 42  1  0
 18 43  1  0
 19 44  1  0
 19 45  1  0
 20 46  1  0
 20 47  1  0
 21 48  1  0
M  END
$$$$
