
     RDKit          3D

 36 38  0  0  0  0  0  0  0  0999 V2000
   -5.8794   -1.2487    0.3189 C   0  0  0  0  0  0  0  0  0  0  0  0
   -5.3703   -1.3799   -1.0027 O   0  0  0  0  0  0  0  0  0  0  0  0
   -4.2128   -0.7061   -1.2835 C   0  0  0  0  0  0  0  0  0  0  0  0
   -3.6752   -0.9704   -2.5471 C   0  0  0  0  0  0  0  0  0  0  0  0
   -2.4979   -0.3481   -2.9669 C   0  0  0  0  0  0  0  0  0  0  0  0
   -1.8467    0.5463   -2.1205 C   0  0  0  0  0  0  0  0  0  0  0  0
   -2.3760    0.8034   -0.8541 C   0  0  0  0  0  0  0  0  0  0  0  0
   -1.8019    1.7144    0.0033 O   0  0  0  0  0  0  0  0  0  0  0  0
   -0.4499    1.5618    0.2727 C   0  0  0  0  0  0  0  0  0  0  0  0
    0.3988    2.5856    0.1222 C   0  0  0  0  0  0  0  0  0  0  0  0
    1.7499    2.5707    0.3668 O   0  0  0  0  0  0  0  0  0  0  0  0
    2.3040    1.3891    0.7917 C   0  0  0  0  0  0  0  0  0  0  0  0
    3.6846    1.3666    0.9896 C   0  0  0  0  0  0  0  0  0  0  0  0
    4.3186    0.1992    1.4276 C   0  0  0  0  0  0  0  0  0  0  0  0
    5.6729    0.3108    1.5804 O   0  0  0  0  0  0  0  0  0  0  0  0
    6.3694   -0.8457    2.0288 C   0  0  0  0  0  0  0  0  0  0  0  0
    3.5579   -0.9479    1.6683 C   0  0  0  0  0  0  0  0  0  0  0  0
    2.1728   -0.9267    1.4718 C   0  0  0  0  0  0  0  0  0  0  0  0
    1.5495    0.2441    1.0313 C   0  0  0  0  0  0  0  0  0  0  0  0
    0.0900    0.2877    0.8238 C   0  0  0  0  0  0  0  0  0  0  0  0
   -0.6145   -0.6708    1.1157 O   0  0  0  0  0  0  0  0  0  0  0  0
   -3.5638    0.1951   -0.4397 C   0  0  0  0  0  0  0  0  0  0  0  0
   -5.1495   -1.5880    1.0616 H   0  0  0  0  0  0  0  0  0  0  0  0
   -6.1972   -0.2198    0.5169 H   0  0  0  0  0  0  0  0  0  0  0  0
   -6.7616   -1.8907    0.4022 H   0  0  0  0  0  0  0  0  0  0  0  0
   -4.1805   -1.6695   -3.2093 H   0  0  0  0  0  0  0  0  0  0  0  0
   -2.0951   -0.5600   -3.9535 H   0  0  0  0  0  0  0  0  0  0  0  0
   -0.9424    1.0418   -2.4596 H   0  0  0  0  0  0  0  0  0  0  0  0
    0.0897    3.5598   -0.2334 H   0  0  0  0  0  0  0  0  0  0  0  0
    4.2737    2.2613    0.8038 H   0  0  0  0  0  0  0  0  0  0  0  0
    6.2713   -1.6677    1.3121 H   0  0  0  0  0  0  0  0  0  0  0  0
    6.0325   -1.1472    3.0261 H   0  0  0  0  0  0  0  0  0  0  0  0
    7.4311   -0.5901    2.0991 H   0  0  0  0  0  0  0  0  0  0  0  0
    4.0090   -1.8741    2.0101 H   0  0  0  0  0  0  0  0  0  0  0  0
    1.5843   -1.8222    1.6627 H   0  0  0  0  0  0  0  0  0  0  0  0
   -3.9453    0.4355    0.5460 H   0  0  0  0  0  0  0  0  0  0  0  0
  1  2  1  0
  2  3  1  0
  3  4  2  0
  4  5  1  0
  5  6  2  0
  6  7  1  0
  7  8  1  0
  8  9  1  0
  9 10  2  0
 10 11  1  0
 11 12  1  0
 12 13  2  0
 13 14  1  0
 14 15  1  0
 15 16  1  0
 14 17  2  0
 17 18  1  0
 18 19  2  0
 19 20  1  0
 20 21  2  0
  7 22  2  0
 22  3  1  0
 20  9  1  0
 19 12  1  0
  1 23  1  0
  1 24  1  0
  1 25  1  0
  4 26  1  0
  5 27  1  0
  6 28  1  0
 10 29  1  0
 13 30  1  0
 16 31  1  0
 16 32  1  0
 16 33  1  0
 17 34  1  0
 18 35  1  0
 22 36  1  0
M  END
$$$$
