
     RDKit          3D

 39 41  0  0  0  0  0  0  0  0999 V2000
   -5.7054   -2.2914    0.6576 C   0  0  0  0  0  0  0  0  0  0  0  0
   -4.4075   -1.7807    0.3573 O   0  0  0  0  0  0  0  0  0  0  0  0
   -4.4375   -0.5114   -0.1628 C   0  0  0  0  0  0  0  0  0  0  0  0
   -5.2488   -0.1668   -1.2467 C   0  0  0  0  0  0  0  0  0  0  0  0
   -5.2143    1.1329   -1.7594 C   0  0  0  0  0  0  0  0  0  0  0  0
   -4.3679    2.0884   -1.1959 C   0  0  0  0  0  0  0  0  0  0  0  0
   -3.5426    1.7454   -0.1266 C   0  0  0  0  0  0  0  0  0  0  0  0
   -3.5615    0.4397    0.3727 C   0  0  0  0  0  0  0  0  0  0  0  0
   -2.7780    0.1006    1.4537 O   0  0  0  0  0  0  0  0  0  0  0  0
   -1.4294    0.0513    1.1647 C   0  0  0  0  0  0  0  0  0  0  0  0
   -0.8909   -1.1165    0.6470 C   0  0  0  0  0  0  0  0  0  0  0  0
    0.4813   -1.1585    0.4064 C   0  0  0  0  0  0  0  0  0  0  0  0
    1.2763   -0.0470    0.7014 C   0  0  0  0  0  0  0  0  0  0  0  0
    2.6584   -0.1405    0.4259 N   0  0  0  0  0  0  0  0  0  0  0  0
    3.6165    0.8190    0.6959 C   0  0  0  0  0  0  0  0  0  0  0  0
    3.4332    1.8770    1.2845 O   0  0  0  0  0  0  0  0  0  0  0  0
    4.9912    0.4896    0.2481 C   0  0  0  0  0  0  0  0  0  0  0  0
    5.2643   -0.2717   -0.8916 C   0  0  0  0  0  0  0  0  0  0  0  0
    6.5902   -0.5267   -1.2391 C   0  0  0  0  0  0  0  0  0  0  0  0
    7.5955   -0.0079   -0.4376 C   0  0  0  0  0  0  0  0  0  0  0  0
    7.3649    0.7412    0.6613 N   0  0  0  0  0  0  0  0  0  0  0  0
    6.0674    0.9848    0.9746 C   0  0  0  0  0  0  0  0  0  0  0  0
    0.6358    1.0697    1.2359 C   0  0  0  0  0  0  0  0  0  0  0  0
   -0.6982    1.1410    1.4815 N   0  0  0  0  0  0  0  0  0  0  0  0
   -6.1973   -2.6592   -0.2483 H   0  0  0  0  0  0  0  0  0  0  0  0
   -5.5811   -3.1409    1.3367 H   0  0  0  0  0  0  0  0  0  0  0  0
   -6.3294   -1.5454    1.1640 H   0  0  0  0  0  0  0  0  0  0  0  0
   -5.8972   -0.9003   -1.7155 H   0  0  0  0  0  0  0  0  0  0  0  0
   -5.8470    1.4003   -2.6023 H   0  0  0  0  0  0  0  0  0  0  0  0
   -4.3471    3.1003   -1.5923 H   0  0  0  0  0  0  0  0  0  0  0  0
   -2.8868    2.4898    0.3186 H   0  0  0  0  0  0  0  0  0  0  0  0
   -1.5271   -1.9684    0.4341 H   0  0  0  0  0  0  0  0  0  0  0  0
    0.9105   -2.0648   -0.0088 H   0  0  0  0  0  0  0  0  0  0  0  0
    2.9728   -1.0284    0.0585 H   0  0  0  0  0  0  0  0  0  0  0  0
    4.4696   -0.6408   -1.5328 H   0  0  0  0  0  0  0  0  0  0  0  0
    6.8367   -1.1052   -2.1228 H   0  0  0  0  0  0  0  0  0  0  0  0
    8.6434   -0.1788   -0.6689 H   0  0  0  0  0  0  0  0  0  0  0  0
    5.9176    1.6027    1.8570 H   0  0  0  0  0  0  0  0  0  0  0  0
    1.1693    1.9778    1.4972 H   0  0  0  0  0  0  0  0  0  0  0  0
  1  2  1  0
  2  3  1  0
  3  4  2  0
  4  5  1  0
  5  6  2  0
  6  7  1  0
  7  8  2  0
  8  9  1  0
  9 10  1  0
 10 11  2  0
 11 12  1  0
 12 13  2  0
 13 14  1  0
 14 15  1  0
 15 16  2  0
 15 17  1  0
 17 18  2  0
 18 19  1  0
 19 20  2  0
 20 21  1  0
 21 22  2  0
 13 23  1  0
 23 24  2  0
  8  3  1  0
 24 10  1  0
 22 17  1  0
  1 25  1  0
  1 26  1  0
  1 27  1  0
  4 28  1  0
  5 29  1  0
  6 30  1  0
  7 31  1  0
 11 32  1  0
 12 33  1  0
 14 34  1  0
 18 35  1  0
 19 36  1  0
 20 37  1  0
 22 38  1  0
 23 39  1  0
M  END
$$$$
