
     RDKit          3D

 48 50  0  0  0  0  0  0  0  0999 V2000
   -4.0221    3.2125    1.8628 C   0  0  0  0  0  0  0  0  0  0  0  0
   -3.6715    2.0878    0.9409 C   0  0  0  0  0  0  0  0  0  0  0  0
   -2.5323    1.4170    1.1792 N   0  0  0  0  0  0  0  0  0  0  0  0
   -2.2132    0.3941    0.3694 C   0  0  0  0  0  0  0  0  0  0  0  0
   -1.0331   -0.3107    0.6087 N   0  0  0  0  0  0  0  0  0  0  0  0
   -0.3381    0.0194    1.8669 C   0  0  0  0  0  0  0  0  0  0  0  0
    0.8904   -0.8841    2.0593 C   0  0  0  0  0  0  0  0  0  0  0  0
    1.8406   -0.7927    0.9445 N   0  0  0  0  0  0  0  0  0  0  0  0
    3.1662   -1.1271    1.1783 C   0  0  0  0  0  0  0  0  0  0  0  0
    3.5367   -1.5802    2.2610 O   0  0  0  0  0  0  0  0  0  0  0  0
    4.1361   -0.9264    0.0193 C   0  0  0  0  0  0  0  0  0  0  0  0
    5.6136   -1.0989    0.4124 C   0  0  0  0  0  0  0  0  0  0  0  0
    6.4770   -1.2409   -0.8430 C   0  0  0  0  0  0  0  0  0  0  0  0
    6.1106    0.0842    1.2474 C   0  0  0  0  0  0  0  0  0  0  0  0
    1.3003   -0.2955   -0.3254 C   0  0  0  0  0  0  0  0  0  0  0  0
   -0.1826   -0.6610   -0.5432 C   0  0  0  0  0  0  0  0  0  0  0  0
   -3.0624    0.0152   -0.6565 C   0  0  0  0  0  0  0  0  0  0  0  0
   -4.2240    0.7455   -0.8301 C   0  0  0  0  0  0  0  0  0  0  0  0
   -5.1436    0.3967   -1.8738 N   0  0  0  0  0  0  0  0  0  0  0  0
   -5.0503   -0.6337   -2.7940 C   0  0  0  0  0  0  0  0  0  0  0  0
   -6.1659   -0.5688   -3.5952 C   0  0  0  0  0  0  0  0  0  0  0  0
   -6.8886    0.5251   -3.1031 C   0  0  0  0  0  0  0  0  0  0  0  0
   -6.2851    1.1139   -2.0725 N   0  0  0  0  0  0  0  0  0  0  0  0
   -4.5345    1.7935   -0.0366 N   0  0  0  0  0  0  0  0  0  0  0  0
   -4.5983    2.8287    2.7096 H   0  0  0  0  0  0  0  0  0  0  0  0
   -4.6198    3.9666    1.3416 H   0  0  0  0  0  0  0  0  0  0  0  0
   -3.1164    3.6958    2.2420 H   0  0  0  0  0  0  0  0  0  0  0  0
   -1.0113   -0.1253    2.7208 H   0  0  0  0  0  0  0  0  0  0  0  0
   -0.0127    1.0681    1.8563 H   0  0  0  0  0  0  0  0  0  0  0  0
    1.3953   -0.6286    2.9974 H   0  0  0  0  0  0  0  0  0  0  0  0
    0.5802   -1.9343    2.1228 H   0  0  0  0  0  0  0  0  0  0  0  0
    3.9864    0.0706   -0.4107 H   0  0  0  0  0  0  0  0  0  0  0  0
    3.8788   -1.6751   -0.7398 H   0  0  0  0  0  0  0  0  0  0  0  0
    5.7317   -2.0138    1.0063 H   0  0  0  0  0  0  0  0  0  0  0  0
    7.5311   -1.3747   -0.5776 H   0  0  0  0  0  0  0  0  0  0  0  0
    6.3980   -0.3551   -1.4826 H   0  0  0  0  0  0  0  0  0  0  0  0
    6.1688   -2.1122   -1.4306 H   0  0  0  0  0  0  0  0  0  0  0  0
    6.0288    1.0247    0.6918 H   0  0  0  0  0  0  0  0  0  0  0  0
    7.1617   -0.0527    1.5237 H   0  0  0  0  0  0  0  0  0  0  0  0
    5.5377    0.1894    2.1737 H   0  0  0  0  0  0  0  0  0  0  0  0
    1.8883   -0.6745   -1.1656 H   0  0  0  0  0  0  0  0  0  0  0  0
    1.4150    0.7952   -0.3071 H   0  0  0  0  0  0  0  0  0  0  0  0
   -0.2640   -1.7435   -0.7000 H   0  0  0  0  0  0  0  0  0  0  0  0
   -0.5126   -0.1704   -1.4670 H   0  0  0  0  0  0  0  0  0  0  0  0
   -2.8154   -0.8417   -1.2644 H   0  0  0  0  0  0  0  0  0  0  0  0
   -4.2209   -1.3226   -2.8080 H   0  0  0  0  0  0  0  0  0  0  0  0
   -6.4209   -1.2221   -4.4174 H   0  0  0  0  0  0  0  0  0  0  0  0
   -7.8338    0.9224   -3.4508 H   0  0  0  0  0  0  0  0  0  0  0  0
  1  2  1  0
  2  3  2  0
  3  4  1  0
  4  5  1  0
  5  6  1  0
  6  7  1  0
  7  8  1  0
  8  9  1  0
  9 10  2  0
  9 11  1  0
 11 12  1  0
 12 13  1  0
 12 14  1  0
  8 15  1  0
 15 16  1  0
  4 17  2  0
 17 18  1  0
 18 19  1  0
 19 20  1  0
 20 21  2  0
 21 22  1  0
 22 23  2  0
 18 24  2  0
 24  2  1  0
 16  5  1  0
 23 19  1  0
  1 25  1  0
  1 26  1  0
  1 27  1  0
  6 28  1  0
  6 29  1  0
  7 30  1  0
  7 31  1  0
 11 32  1  0
 11 33  1  0
 12 34  1  0
 13 35  1  0
 13 36  1  0
 13 37  1  0
 14 38  1  0
 14 39  1  0
 14 40  1  0
 15 41  1  0
 15 42  1  0
 16 43  1  0
 16 44  1  0
 17 45  1  0
 20 46  1  0
 21 47  1  0
 22 48  1  0
M  END
$$$$
