
     RDKit          3D

 52 54  0  0  0  0  0  0  0  0999 V2000
   -7.0970    1.8295   -1.7455 C   0  0  0  0  0  0  0  0  0  0  0  0
   -6.0849    0.9666   -1.0168 C   0  0  0  0  0  0  0  0  0  0  0  0
   -5.4173    1.8144    0.4077 S   0  0  0  0  0  6  0  0  0  0  0  0
   -4.5785    2.9085   -0.0423 O   0  0  0  0  0  0  0  0  0  0  0  0
   -6.5137    2.0422    1.3337 O   0  0  0  0  0  0  0  0  0  0  0  0
   -4.3304    0.6304    1.1747 C   0  0  0  0  0  0  0  0  0  0  0  0
   -4.4738    0.3440    2.5374 C   0  0  0  0  0  0  0  0  0  0  0  0
   -3.6071   -0.5632    3.1435 C   0  0  0  0  0  0  0  0  0  0  0  0
   -2.6162   -1.1743    2.3750 C   0  0  0  0  0  0  0  0  0  0  0  0
   -1.7613   -2.0832    2.9442 O   0  0  0  0  0  0  0  0  0  0  0  0
   -2.4719   -0.8983    1.0033 C   0  0  0  0  0  0  0  0  0  0  0  0
   -1.4489   -1.5873    0.3201 N   0  0  0  0  0  0  0  0  0  0  0  0
   -1.1789   -1.5852   -1.0324 C   0  0  0  0  0  0  0  0  0  0  0  0
   -1.7624   -0.9226   -1.8890 O   0  0  0  0  0  0  0  0  0  0  0  0
    0.0047   -2.4712   -1.4143 C   0  0  0  0  0  0  0  0  0  0  0  0
    1.2154   -1.6716   -1.3612 N   0  0  0  0  0  0  0  0  0  0  0  0
    1.6500   -1.0054   -2.4808 C   0  0  0  0  0  0  0  0  0  0  0  0
    2.7049   -0.2642   -2.5303 N   0  0  0  0  0  0  0  0  0  0  0  0
    3.4522   -0.1090   -1.3535 C   0  0  0  0  0  0  0  0  0  0  0  0
    4.5972    0.6901   -1.3875 C   0  0  0  0  0  0  0  0  0  0  0  0
    5.3686    0.8841   -0.2332 C   0  0  0  0  0  0  0  0  0  0  0  0
    6.5065    1.6527   -0.1831 O   0  0  0  0  0  0  0  0  0  0  0  0
    6.8545    2.3926   -1.3452 C   0  0  0  0  0  0  0  0  0  0  0  0
    4.9911    0.2592    0.9766 C   0  0  0  0  0  0  0  0  0  0  0  0
    5.8020    0.5000    2.0587 O   0  0  0  0  0  0  0  0  0  0  0  0
    5.5116   -0.1920    3.2654 C   0  0  0  0  0  0  0  0  0  0  0  0
    3.8435   -0.5377    1.0130 C   0  0  0  0  0  0  0  0  0  0  0  0
    3.0884   -0.7152   -0.1515 C   0  0  0  0  0  0  0  0  0  0  0  0
    1.8732   -1.5524   -0.1477 C   0  0  0  0  0  0  0  0  0  0  0  0
    1.4845   -2.0889    0.8875 O   0  0  0  0  0  0  0  0  0  0  0  0
   -3.3326    0.0184    0.4063 C   0  0  0  0  0  0  0  0  0  0  0  0
   -7.4427    1.3297   -2.6578 H   0  0  0  0  0  0  0  0  0  0  0  0
   -7.9718    2.0336   -1.1138 H   0  0  0  0  0  0  0  0  0  0  0  0
   -6.6572    2.7952   -2.0293 H   0  0  0  0  0  0  0  0  0  0  0  0
   -6.5535    0.0411   -0.6651 H   0  0  0  0  0  0  0  0  0  0  0  0
   -5.2574    0.7239   -1.6877 H   0  0  0  0  0  0  0  0  0  0  0  0
   -5.2461    0.8296    3.1304 H   0  0  0  0  0  0  0  0  0  0  0  0
   -3.7230   -0.7838    4.2011 H   0  0  0  0  0  0  0  0  0  0  0  0
   -1.9593   -2.1402    3.8944 H   0  0  0  0  0  0  0  0  0  0  0  0
   -0.8399   -2.1318    0.9350 H   0  0  0  0  0  0  0  0  0  0  0  0
    0.0739   -3.3308   -0.7365 H   0  0  0  0  0  0  0  0  0  0  0  0
   -0.1589   -2.8529   -2.4300 H   0  0  0  0  0  0  0  0  0  0  0  0
    1.0264   -1.1475   -3.3792 H   0  0  0  0  0  0  0  0  0  0  0  0
    4.8604    1.1462   -2.3379 H   0  0  0  0  0  0  0  0  0  0  0  0
    7.7370    2.9945   -1.1023 H   0  0  0  0  0  0  0  0  0  0  0  0
    7.1214    1.7252   -2.1706 H   0  0  0  0  0  0  0  0  0  0  0  0
    6.0522    3.0800   -1.6355 H   0  0  0  0  0  0  0  0  0  0  0  0
    5.5410   -1.2766    3.1193 H   0  0  0  0  0  0  0  0  0  0  0  0
    6.2871    0.0651    3.9924 H   0  0  0  0  0  0  0  0  0  0  0  0
    4.5500    0.1266    3.6763 H   0  0  0  0  0  0  0  0  0  0  0  0
    3.5129   -1.0245    1.9236 H   0  0  0  0  0  0  0  0  0  0  0  0
   -3.2259    0.2861   -0.6393 H   0  0  0  0  0  0  0  0  0  0  0  0
  1  2  1  0
  2  3  1  0
  3  4  2  0
  3  5  2  0
  3  6  1  0
  6  7  2  0
  7  8  1  0
  8  9  2  0
  9 10  1  0
  9 11  1  0
 11 12  1  0
 12 13  1  0
 13 14  2  0
 13 15  1  0
 15 16  1  0
 16 17  1  0
 17 18  2  0
 18 19  1  0
 19 20  2  0
 20 21  1  0
 21 22  1  0
 22 23  1  0
 21 24  2  0
 24 25  1  0
 25 26  1  0
 24 27  1  0
 27 28  2  0
 28 29  1  0
 29 30  2  0
 11 31  2  0
 31  6  1  0
 29 16  1  0
 28 19  1  0
  1 32  1  0
  1 33  1  0
  1 34  1  0
  2 35  1  0
  2 36  1  0
  7 37  1  0
  8 38  1  0
 10 39  1  0
 12 40  1  0
 15 41  1  0
 15 42  1  0
 17 43  1  0
 20 44  1  0
 23 45  1  0
 23 46  1  0
 23 47  1  0
 26 48  1  0
 26 49  1  0
 26 50  1  0
 27 51  1  0
 31 52  1  0
M  END
$$$$
