
     RDKit          3D

 42 44  0  0  0  0  0  0  0  0999 V2000
    3.8289   -3.4625   -0.1794 C   0  0  0  0  0  0  0  0  0  0  0  0
    3.0326   -2.0462   -0.9071 S   0  0  0  0  0  6  0  0  0  0  0  0
    1.6468   -2.4130   -1.1175 O   0  0  0  0  0  0  0  0  0  0  0  0
    3.8589   -1.5736   -1.9984 O   0  0  0  0  0  0  0  0  0  0  0  0
    3.1465   -0.9300    0.3761 N   0  0  0  0  0  0  0  0  0  0  0  0
    4.5233   -0.4095    0.6844 C   0  0  0  0  0  0  0  0  0  0  0  0
    4.4760    1.1183    0.5206 C   0  0  0  0  0  0  0  0  0  0  0  0
    3.0114    1.3940    0.4538 C   0  0  0  0  0  0  0  0  0  0  0  0
    2.3783    2.6272    0.4568 C   0  0  0  0  0  0  0  0  0  0  0  0
    0.9866    2.6579    0.3342 C   0  0  0  0  0  0  0  0  0  0  0  0
    0.2572    1.4637    0.2194 C   0  0  0  0  0  0  0  0  0  0  0  0
   -1.1587    1.5256    0.0461 N   0  0  0  0  0  0  0  0  0  0  0  0
   -1.7432    1.3399   -1.5329 S   0  0  0  0  0  6  0  0  0  0  0  0
   -0.6357    1.2691   -2.4621 O   0  0  0  0  0  0  0  0  0  0  0  0
   -2.7493    2.3733   -1.6883 O   0  0  0  0  0  0  0  0  0  0  0  0
   -2.5502   -0.2705   -1.4815 C   0  0  0  0  0  0  0  0  0  0  0  0
   -3.7180   -0.2611   -0.5237 C   0  0  0  0  0  0  0  0  0  0  0  0
   -4.9399    0.2942   -0.9517 C   0  0  0  0  0  0  0  0  0  0  0  0
   -6.0502    0.3381   -0.1069 C   0  0  0  0  0  0  0  0  0  0  0  0
   -5.9647   -0.1779    1.1812 C   0  0  0  0  0  0  0  0  0  0  0  0
   -4.7689   -0.7423    1.6206 C   0  0  0  0  0  0  0  0  0  0  0  0
   -3.6531   -0.7871    0.7763 C   0  0  0  0  0  0  0  0  0  0  0  0
   -2.2310   -1.5400    1.3997 Cl  0  0  0  0  0  0  0  0  0  0  0  0
    0.9075    0.2290    0.2003 C   0  0  0  0  0  0  0  0  0  0  0  0
    2.2862    0.2150    0.3068 C   0  0  0  0  0  0  0  0  0  0  0  0
    4.8716   -3.2254    0.0362 H   0  0  0  0  0  0  0  0  0  0  0  0
    3.2926   -3.7410    0.7299 H   0  0  0  0  0  0  0  0  0  0  0  0
    3.7814   -4.2821   -0.9002 H   0  0  0  0  0  0  0  0  0  0  0  0
    5.3068   -0.8446    0.0581 H   0  0  0  0  0  0  0  0  0  0  0  0
    4.7531   -0.6753    1.7233 H   0  0  0  0  0  0  0  0  0  0  0  0
    4.9575    1.6224    1.3636 H   0  0  0  0  0  0  0  0  0  0  0  0
    4.9583    1.4228   -0.4146 H   0  0  0  0  0  0  0  0  0  0  0  0
    2.9450    3.5498    0.5353 H   0  0  0  0  0  0  0  0  0  0  0  0
    0.4769    3.6180    0.3135 H   0  0  0  0  0  0  0  0  0  0  0  0
   -1.6182    2.3309    0.4749 H   0  0  0  0  0  0  0  0  0  0  0  0
   -1.7947   -1.0253   -1.2520 H   0  0  0  0  0  0  0  0  0  0  0  0
   -2.9018   -0.4757   -2.4992 H   0  0  0  0  0  0  0  0  0  0  0  0
   -5.0324    0.7117   -1.9542 H   0  0  0  0  0  0  0  0  0  0  0  0
   -6.9802    0.7773   -0.4584 H   0  0  0  0  0  0  0  0  0  0  0  0
   -6.8284   -0.1466    1.8406 H   0  0  0  0  0  0  0  0  0  0  0  0
   -4.7130   -1.1548    2.6252 H   0  0  0  0  0  0  0  0  0  0  0  0
    0.3483   -0.6938    0.1158 H   0  0  0  0  0  0  0  0  0  0  0  0
  1  2  1  0
  2  3  2  0
  2  4  2  0
  2  5  1  0
  5  6  1  0
  6  7  1  0
  7  8  1  0
  8  9  2  0
  9 10  1  0
 10 11  2  0
 11 12  1  0
 12 13  1  0
 13 14  2  0
 13 15  2  0
 13 16  1  0
 16 17  1  0
 17 18  2  0
 18 19  1  0
 19 20  2  0
 20 21  1  0
 21 22  2  0
 22 23  1  0
 11 24  1  0
 24 25  2  0
 25  5  1  0
 25  8  1  0
 22 17  1  0
  1 26  1  0
  1 27  1  0
  1 28  1  0
  6 29  1  0
  6 30  1  0
  7 31  1  0
  7 32  1  0
  9 33  1  0
 10 34  1  0
 12 35  1  0
 16 36  1  0
 16 37  1  0
 18 38  1  0
 19 39  1  0
 20 40  1  0
 21 41  1  0
 24 42  1  0
M  END
$$$$
