
     RDKit          3D

 35 37  0  0  0  0  0  0  0  0999 V2000
   -5.4259    2.0181    0.4394 C   0  0  0  0  0  0  0  0  0  0  0  0
   -4.6533    0.7849    0.0787 C   0  0  0  0  0  0  0  0  0  0  0  0
   -5.3239   -0.3830   -0.2607 C   0  0  0  0  0  0  0  0  0  0  0  0
   -4.5743   -1.5048   -0.5902 C   0  0  0  0  0  0  0  0  0  0  0  0
   -3.1834   -1.4308   -0.5709 C   0  0  0  0  0  0  0  0  0  0  0  0
   -2.5849   -0.2309   -0.2193 C   0  0  0  0  0  0  0  0  0  0  0  0
   -1.2084   -0.0185   -0.1628 N   0  0  0  0  0  0  0  0  0  0  0  0
   -0.1878   -0.9122   -0.3793 C   0  0  0  0  0  0  0  0  0  0  0  0
   -0.3556   -2.1001   -0.6366 O   0  0  0  0  0  0  0  0  0  0  0  0
    1.1477   -0.3281   -0.2592 C   0  0  0  0  0  0  0  0  0  0  0  0
    1.5327    1.0062   -0.2656 C   0  0  0  0  0  0  0  0  0  0  0  0
    2.9436    1.0829   -0.1414 C   0  0  0  0  0  0  0  0  0  0  0  0
    3.8556    2.1561   -0.0963 C   0  0  0  0  0  0  0  0  0  0  0  0
    5.2229    1.8935    0.0271 C   0  0  0  0  0  0  0  0  0  0  0  0
    5.6842    0.5839    0.1022 C   0  0  0  0  0  0  0  0  0  0  0  0
    4.7962   -0.4957    0.0572 C   0  0  0  0  0  0  0  0  0  0  0  0
    3.4219   -0.2242   -0.0641 C   0  0  0  0  0  0  0  0  0  0  0  0
    2.3221   -1.0607   -0.1343 N   0  0  0  0  0  0  0  0  0  0  0  0
    2.3815   -2.5085   -0.0690 C   0  0  0  0  0  0  0  0  0  0  0  0
   -3.3013    0.8702    0.1009 N   0  0  0  0  0  0  0  0  0  0  0  0
   -4.7499    2.8450    0.6798 H   0  0  0  0  0  0  0  0  0  0  0  0
   -6.0555    1.8275    1.3141 H   0  0  0  0  0  0  0  0  0  0  0  0
   -6.0578    2.3273   -0.3989 H   0  0  0  0  0  0  0  0  0  0  0  0
   -6.4082   -0.4232   -0.2707 H   0  0  0  0  0  0  0  0  0  0  0  0
   -5.0658   -2.4346   -0.8624 H   0  0  0  0  0  0  0  0  0  0  0  0
   -2.6100   -2.3108   -0.8336 H   0  0  0  0  0  0  0  0  0  0  0  0
   -0.9900    0.9239    0.1190 H   0  0  0  0  0  0  0  0  0  0  0  0
    0.8774    1.8607   -0.3703 H   0  0  0  0  0  0  0  0  0  0  0  0
    3.5018    3.1811   -0.1578 H   0  0  0  0  0  0  0  0  0  0  0  0
    5.9284    2.7197    0.0623 H   0  0  0  0  0  0  0  0  0  0  0  0
    6.7512    0.3944    0.1957 H   0  0  0  0  0  0  0  0  0  0  0  0
    5.1769   -1.5101    0.1130 H   0  0  0  0  0  0  0  0  0  0  0  0
    1.6956   -2.8526    0.7093 H   0  0  0  0  0  0  0  0  0  0  0  0
    2.1070   -2.9078   -1.0485 H   0  0  0  0  0  0  0  0  0  0  0  0
    3.3891   -2.8388    0.1881 H   0  0  0  0  0  0  0  0  0  0  0  0
  1  2  1  0
  2  3  2  0
  3  4  1  0
  4  5  2  0
  5  6  1  0
  6  7  1  0
  7  8  1  0
  8  9  2  0
  8 10  1  0
 10 11  2  0
 11 12  1  0
 12 13  2  0
 13 14  1  0
 14 15  2  0
 15 16  1  0
 16 17  2  0
 17 18  1  0
 18 19  1  0
  6 20  2  0
 20  2  1  0
 18 10  1  0
 17 12  1  0
  1 21  1  0
  1 22  1  0
  1 23  1  0
  3 24  1  0
  4 25  1  0
  5 26  1  0
  7 27  1  0
 11 28  1  0
 13 29  1  0
 14 30  1  0
 15 31  1  0
 16 32  1  0
 19 33  1  0
 19 34  1  0
 19 35  1  0
M  END
$$$$
