
     RDKit          3D

 28 30  0  0  0  0  0  0  0  0999 V2000
    3.1451    0.5708    1.7655 C   0  0  0  0  0  0  0  0  0  0  0  0
    3.1186    0.8772    0.3053 C   0  0  0  0  0  0  0  0  0  0  0  0
    4.1700    1.3235   -0.4081 C   0  0  0  0  0  0  0  0  0  0  0  0
    3.7680    1.5537   -2.0975 S   0  0  0  0  0  0  0  0  0  0  0  0
    2.1053    1.0225   -1.7931 C   0  0  0  0  0  0  0  0  0  0  0  0
    1.2241    0.9621   -2.7276 N   0  0  0  0  0  0  0  0  0  0  0  0
   -0.0068    0.5622   -2.2459 C   0  0  0  0  0  0  0  0  0  0  0  0
   -1.0140    0.6375   -2.9388 O   0  0  0  0  0  0  0  0  0  0  0  0
   -0.1742    0.0497   -0.7909 C   0  0  0  0  0  0  0  0  0  0  0  0
   -1.4593   -0.5678   -0.3566 C   0  0  0  0  0  0  0  0  0  0  0  0
   -2.1717   -1.3918   -1.2423 C   0  0  0  0  0  0  0  0  0  0  0  0
   -3.3852   -1.9632   -0.8563 C   0  0  0  0  0  0  0  0  0  0  0  0
   -3.8957   -1.7172    0.4140 C   0  0  0  0  0  0  0  0  0  0  0  0
   -3.1844   -0.9147    1.3064 C   0  0  0  0  0  0  0  0  0  0  0  0
   -1.9434   -0.3681    0.9538 C   0  0  0  0  0  0  0  0  0  0  0  0
   -1.3345    0.5062    1.8808 N   0  0  0  0  0  0  0  0  0  0  0  0
    0.8058    0.1777    0.0692 N   0  0  0  0  0  0  0  0  0  0  0  0
    1.9532    0.7077   -0.4476 N   0  0  0  0  0  0  0  0  0  0  0  0
    2.4159    1.1880    2.3004 H   0  0  0  0  0  0  0  0  0  0  0  0
    4.1309    0.7669    2.2003 H   0  0  0  0  0  0  0  0  0  0  0  0
    2.9063   -0.4830    1.9420 H   0  0  0  0  0  0  0  0  0  0  0  0
    5.1611    1.5189   -0.0216 H   0  0  0  0  0  0  0  0  0  0  0  0
   -1.8019   -1.5993   -2.2439 H   0  0  0  0  0  0  0  0  0  0  0  0
   -3.9358   -2.5919   -1.5522 H   0  0  0  0  0  0  0  0  0  0  0  0
   -4.8476   -2.1488    0.7131 H   0  0  0  0  0  0  0  0  0  0  0  0
   -3.5930   -0.7283    2.2973 H   0  0  0  0  0  0  0  0  0  0  0  0
   -1.8127    1.4038    1.9126 H   0  0  0  0  0  0  0  0  0  0  0  0
   -0.3442    0.6461    1.6620 H   0  0  0  0  0  0  0  0  0  0  0  0
  1  2  1  0
  2  3  2  0
  3  4  1  0
  4  5  1  0
  5  6  2  0
  6  7  1  0
  7  8  2  0
  7  9  1  0
  9 10  1  0
 10 11  2  0
 11 12  1  0
 12 13  2  0
 13 14  1  0
 14 15  2  0
 15 16  1  0
  9 17  2  0
 17 18  1  0
 18  2  1  0
 18  5  1  0
 15 10  1  0
  1 19  1  0
  1 20  1  0
  1 21  1  0
  3 22  1  0
 11 23  1  0
 12 24  1  0
 13 25  1  0
 14 26  1  0
 16 27  1  0
 16 28  1  0
M  END
$$$$
