
     RDKit          3D

 49 52  0  0  0  0  0  0  0  0999 V2000
    4.0954    2.0958    0.2640 C   0  0  0  0  0  0  0  0  0  0  0  0
    4.0717    0.6748    0.0282 N   0  0  0  0  0  0  0  0  0  0  0  0
    2.9739   -0.1068   -0.2033 C   0  0  0  0  0  0  0  0  0  0  0  0
    1.3666    0.5020   -0.3716 S   0  0  0  0  0  0  0  0  0  0  0  0
    0.5539   -0.9521   -1.0995 C   0  0  0  0  0  0  0  0  0  0  0  0
   -0.9369   -0.6824   -1.2166 C   0  0  0  0  0  0  0  0  0  0  0  0
   -1.4347   -0.3266   -2.2812 O   0  0  0  0  0  0  0  0  0  0  0  0
   -1.6120   -0.8828   -0.0196 N   0  0  0  0  0  0  0  0  0  0  0  0
   -2.9942   -0.7382    0.2242 C   0  0  0  0  0  0  0  0  0  0  0  0
   -3.4302   -0.9654    1.5540 C   0  0  0  0  0  0  0  0  0  0  0  0
   -4.7788   -0.8521    1.9166 C   0  0  0  0  0  0  0  0  0  0  0  0
   -5.6676   -0.5100    0.9232 C   0  0  0  0  0  0  0  0  0  0  0  0
   -5.2486   -0.2856   -0.3879 C   0  0  0  0  0  0  0  0  0  0  0  0
   -3.9236   -0.3931   -0.7639 C   0  0  0  0  0  0  0  0  0  0  0  0
   -6.3789    0.0416   -1.1491 N   0  0  0  0  0  0  0  0  0  0  0  0
   -6.3708    0.3521   -2.5495 C   0  0  0  0  0  0  0  0  0  0  0  0
   -7.5179    0.0253   -0.3160 C   0  0  0  0  0  0  0  0  0  0  0  0
   -8.6706    0.2634   -0.6400 O   0  0  0  0  0  0  0  0  0  0  0  0
   -7.0538   -0.3218    0.9723 N   0  0  0  0  0  0  0  0  0  0  0  0
   -7.8697   -0.4566    2.1431 C   0  0  0  0  0  0  0  0  0  0  0  0
    3.3272   -1.3670   -0.2611 N   0  0  0  0  0  0  0  0  0  0  0  0
    4.6876   -1.4219   -0.0889 N   0  0  0  0  0  0  0  0  0  0  0  0
    5.1483   -0.1889    0.0414 C   0  0  0  0  0  0  0  0  0  0  0  0
    6.5541    0.1717    0.2113 C   0  0  0  0  0  0  0  0  0  0  0  0
    7.3369   -0.5296    1.1385 C   0  0  0  0  0  0  0  0  0  0  0  0
    8.6829   -0.2059    1.3222 C   0  0  0  0  0  0  0  0  0  0  0  0
    9.2624    0.8149    0.5713 C   0  0  0  0  0  0  0  0  0  0  0  0
    8.5008    1.5052   -0.3701 C   0  0  0  0  0  0  0  0  0  0  0  0
    7.1539    1.1818   -0.5543 C   0  0  0  0  0  0  0  0  0  0  0  0
    3.2045    2.3937    0.8221 H   0  0  0  0  0  0  0  0  0  0  0  0
    4.9691    2.3606    0.8638 H   0  0  0  0  0  0  0  0  0  0  0  0
    4.1283    2.6040   -0.7027 H   0  0  0  0  0  0  0  0  0  0  0  0
    0.7113   -1.8423   -0.4810 H   0  0  0  0  0  0  0  0  0  0  0  0
    0.9573   -1.1532   -2.0973 H   0  0  0  0  0  0  0  0  0  0  0  0
   -1.0407   -1.1236    0.7825 H   0  0  0  0  0  0  0  0  0  0  0  0
   -2.7135   -1.2354    2.3272 H   0  0  0  0  0  0  0  0  0  0  0  0
   -5.0980   -1.0277    2.9364 H   0  0  0  0  0  0  0  0  0  0  0  0
   -3.6420   -0.2123   -1.7922 H   0  0  0  0  0  0  0  0  0  0  0  0
   -5.9800   -0.5028   -3.1084 H   0  0  0  0  0  0  0  0  0  0  0  0
   -5.7392    1.2281   -2.7220 H   0  0  0  0  0  0  0  0  0  0  0  0
   -7.3843    0.5705   -2.8962 H   0  0  0  0  0  0  0  0  0  0  0  0
   -7.7846   -1.4772    2.5279 H   0  0  0  0  0  0  0  0  0  0  0  0
   -7.5326    0.2547    2.9030 H   0  0  0  0  0  0  0  0  0  0  0  0
   -8.9168   -0.2521    1.9039 H   0  0  0  0  0  0  0  0  0  0  0  0
    6.8975   -1.3365    1.7228 H   0  0  0  0  0  0  0  0  0  0  0  0
    9.2781   -0.7554    2.0470 H   0  0  0  0  0  0  0  0  0  0  0  0
   10.3117    1.0632    0.7108 H   0  0  0  0  0  0  0  0  0  0  0  0
    8.9589    2.2889   -0.9688 H   0  0  0  0  0  0  0  0  0  0  0  0
    6.5877    1.7127   -1.3155 H   0  0  0  0  0  0  0  0  0  0  0  0
  1  2  1  0
  2  3  1  0
  3  4  1  0
  4  5  1  0
  5  6  1  0
  6  7  2  0
  6  8  1  0
  8  9  1  0
  9 10  2  0
 10 11  1  0
 11 12  2  0
 12 13  1  0
 13 14  2  0
 13 15  1  0
 15 16  1  0
 15 17  1  0
 17 18  2  0
 17 19  1  0
 19 20  1  0
  3 21  2  0
 21 22  1  0
 22 23  2  0
 23 24  1  0
 24 25  2  0
 25 26  1  0
 26 27  2  0
 27 28  1  0
 28 29  2  0
 23  2  1  0
 29 24  1  0
 14  9  1  0
 19 12  1  0
  1 30  1  0
  1 31  1  0
  1 32  1  0
  5 33  1  0
  5 34  1  0
  8 35  1  0
 10 36  1  0
 11 37  1  0
 14 38  1  0
 16 39  1  0
 16 40  1  0
 16 41  1  0
 20 42  1  0
 20 43  1  0
 20 44  1  0
 25 45  1  0
 26 46  1  0
 27 47  1  0
 28 48  1  0
 29 49  1  0
M  END
$$$$
