
     RDKit          3D

 52 55  0  0  0  0  0  0  0  0999 V2000
    7.4772    2.3044   -0.3813 C   0  0  0  0  0  0  0  0  0  0  0  0
    7.8130    1.0139   -0.8735 O   0  0  0  0  0  0  0  0  0  0  0  0
    6.8448    0.0495   -0.8088 C   0  0  0  0  0  0  0  0  0  0  0  0
    7.2387   -1.1999   -1.2871 C   0  0  0  0  0  0  0  0  0  0  0  0
    6.3474   -2.2702   -1.2793 C   0  0  0  0  0  0  0  0  0  0  0  0
    5.0510   -2.0987   -0.7891 C   0  0  0  0  0  0  0  0  0  0  0  0
    4.6388   -0.8575   -0.3020 C   0  0  0  0  0  0  0  0  0  0  0  0
    3.3448   -0.5975    0.2035 N   0  0  0  0  0  0  0  0  0  0  0  0
    2.3210   -1.4961    0.4141 C   0  0  0  0  0  0  0  0  0  0  0  0
    2.4133   -2.7098    0.2502 O   0  0  0  0  0  0  0  0  0  0  0  0
    1.1264   -0.9218    0.8392 N   0  0  0  0  0  0  0  0  0  0  0  0
    0.8564    0.5197    0.9414 C   0  0  0  0  0  0  0  0  0  0  0  0
   -0.5916    0.8555    1.3484 C   0  0  0  0  0  0  0  0  0  0  0  0
   -1.5431    0.1336    0.4873 N   0  0  0  0  0  0  0  0  0  0  0  0
   -2.8791    0.5267    0.6018 C   0  0  0  0  0  0  0  0  0  0  0  0
   -3.8346    0.0278   -0.2676 C   0  0  0  0  0  0  0  0  0  0  0  0
   -5.1358    0.4681   -0.1104 C   0  0  0  0  0  0  0  0  0  0  0  0
   -6.1697   -0.0192   -0.9765 N   0  0  0  0  0  0  0  0  0  0  0  0
   -6.0655   -0.9318   -2.0125 C   0  0  0  0  0  0  0  0  0  0  0  0
   -7.3231   -1.0910   -2.5454 C   0  0  0  0  0  0  0  0  0  0  0  0
   -8.1373   -0.2438   -1.7833 C   0  0  0  0  0  0  0  0  0  0  0  0
   -7.4578    0.4046   -0.8391 N   0  0  0  0  0  0  0  0  0  0  0  0
   -5.4785    1.3575    0.8468 N   0  0  0  0  0  0  0  0  0  0  0  0
   -4.4949    1.8142    1.6277 C   0  0  0  0  0  0  0  0  0  0  0  0
   -4.8579    2.7874    2.7042 C   0  0  0  0  0  0  0  0  0  0  0  0
   -3.2108    1.4286    1.5410 N   0  0  0  0  0  0  0  0  0  0  0  0
   -1.2756   -1.3083    0.2874 C   0  0  0  0  0  0  0  0  0  0  0  0
   -0.0333   -1.7907    1.0608 C   0  0  0  0  0  0  0  0  0  0  0  0
    5.5452    0.2168   -0.3207 C   0  0  0  0  0  0  0  0  0  0  0  0
    8.3575    2.9447   -0.4932 H   0  0  0  0  0  0  0  0  0  0  0  0
    7.2250    2.2678    0.6838 H   0  0  0  0  0  0  0  0  0  0  0  0
    6.6649    2.7498   -0.9656 H   0  0  0  0  0  0  0  0  0  0  0  0
    8.2471   -1.3401   -1.6689 H   0  0  0  0  0  0  0  0  0  0  0  0
    6.6592   -3.2411   -1.6554 H   0  0  0  0  0  0  0  0  0  0  0  0
    4.3864   -2.9565   -0.8083 H   0  0  0  0  0  0  0  0  0  0  0  0
    3.1877    0.3425    0.5208 H   0  0  0  0  0  0  0  0  0  0  0  0
    1.5510    0.9521    1.6698 H   0  0  0  0  0  0  0  0  0  0  0  0
    1.0747    0.9601   -0.0390 H   0  0  0  0  0  0  0  0  0  0  0  0
   -0.7216    1.9411    1.2557 H   0  0  0  0  0  0  0  0  0  0  0  0
   -0.7530    0.5823    2.3993 H   0  0  0  0  0  0  0  0  0  0  0  0
   -3.5411   -0.6594   -1.0463 H   0  0  0  0  0  0  0  0  0  0  0  0
   -5.1285   -1.3893   -2.2877 H   0  0  0  0  0  0  0  0  0  0  0  0
   -7.6093   -1.7294   -3.3691 H   0  0  0  0  0  0  0  0  0  0  0  0
   -9.2019   -0.0688   -1.8735 H   0  0  0  0  0  0  0  0  0  0  0  0
   -5.1108    2.2460    3.6204 H   0  0  0  0  0  0  0  0  0  0  0  0
   -4.0207    3.4612    2.9117 H   0  0  0  0  0  0  0  0  0  0  0  0
   -5.7180    3.3930    2.4028 H   0  0  0  0  0  0  0  0  0  0  0  0
   -2.1252   -1.9269    0.6035 H   0  0  0  0  0  0  0  0  0  0  0  0
   -1.1181   -1.4760   -0.7848 H   0  0  0  0  0  0  0  0  0  0  0  0
   -0.2353   -1.7768    2.1391 H   0  0  0  0  0  0  0  0  0  0  0  0
    0.1786   -2.8300    0.7913 H   0  0  0  0  0  0  0  0  0  0  0  0
    5.2219    1.1816    0.0527 H   0  0  0  0  0  0  0  0  0  0  0  0
  1  2  1  0
  2  3  1  0
  3  4  2  0
  4  5  1  0
  5  6  2  0
  6  7  1  0
  7  8  1  0
  8  9  1  0
  9 10  2  0
  9 11  1  0
 11 12  1  0
 12 13  1  0
 13 14  1  0
 14 15  1  0
 15 16  2  0
 16 17  1  0
 17 18  1  0
 18 19  1  0
 19 20  2  0
 20 21  1  0
 21 22  2  0
 17 23  2  0
 23 24  1  0
 24 25  1  0
 24 26  2  0
 14 27  1  0
 27 28  1  0
  7 29  2  0
 29  3  1  0
 28 11  1  0
 26 15  1  0
 22 18  1  0
  1 30  1  0
  1 31  1  0
  1 32  1  0
  4 33  1  0
  5 34  1  0
  6 35  1  0
  8 36  1  0
 12 37  1  0
 12 38  1  0
 13 39  1  0
 13 40  1  0
 16 41  1  0
 19 42  1  0
 20 43  1  0
 21 44  1  0
 25 45  1  0
 25 46  1  0
 25 47  1  0
 27 48  1  0
 27 49  1  0
 28 50  1  0
 28 51  1  0
 29 52  1  0
M  END
$$$$
