
     RDKit          3D

 47 49  0  0  0  0  0  0  0  0999 V2000
    5.0967    0.6173    3.2870 C   0  0  0  0  0  0  0  0  0  0  0  0
    4.8962    1.4423    2.1468 O   0  0  0  0  0  0  0  0  0  0  0  0
    5.0436    0.7485    0.9115 C   0  0  0  0  0  0  0  0  0  0  0  0
    3.8258   -0.1038    0.5649 C   0  0  0  0  0  0  0  0  0  0  0  0
    2.5384    0.7136    0.5534 C   0  0  0  0  0  0  0  0  0  0  0  0
    1.4118   -0.0990    0.1330 N   0  0  0  0  0  0  0  0  0  0  0  0
    0.1186    0.3277    0.3529 C   0  0  0  0  0  0  0  0  0  0  0  0
   -0.1475    1.3511    0.9774 O   0  0  0  0  0  0  0  0  0  0  0  0
   -0.9239   -0.4843   -0.2880 C   0  0  0  0  0  0  0  0  0  0  0  0
   -2.1381    0.0757   -0.6755 C   0  0  0  0  0  0  0  0  0  0  0  0
   -2.5267    1.3912   -0.4778 N   0  0  0  0  0  0  0  0  0  0  0  0
   -3.6991    2.0105   -0.8696 C   0  0  0  0  0  0  0  0  0  0  0  0
   -4.6130    1.5040   -1.5115 O   0  0  0  0  0  0  0  0  0  0  0  0
   -3.7574    3.3987   -0.4401 C   0  0  0  0  0  0  0  0  0  0  0  0
   -4.7339    4.3629   -0.6088 C   0  0  0  0  0  0  0  0  0  0  0  0
   -4.2593    5.5402    0.0174 C   0  0  0  0  0  0  0  0  0  0  0  0
   -3.0229    5.2281    0.5303 C   0  0  0  0  0  0  0  0  0  0  0  0
   -2.7063    3.9361    0.2591 O   0  0  0  0  0  0  0  0  0  0  0  0
   -3.1523   -1.0373   -1.4548 S   0  0  0  0  0  0  0  0  0  0  0  0
   -2.0556   -2.3075   -1.2259 C   0  0  0  0  0  0  0  0  0  0  0  0
   -0.9015   -1.9066   -0.5778 C   0  0  0  0  0  0  0  0  0  0  0  0
    0.1760   -2.9017   -0.2399 C   0  0  0  0  0  0  0  0  0  0  0  0
   -0.3351   -4.3497   -0.2982 C   0  0  0  0  0  0  0  0  0  0  0  0
   -1.1437   -4.6045   -1.5762 C   0  0  0  0  0  0  0  0  0  0  0  0
   -2.3872   -3.7077   -1.6444 C   0  0  0  0  0  0  0  0  0  0  0  0
    6.0880    0.1550    3.2593 H   0  0  0  0  0  0  0  0  0  0  0  0
    4.3222   -0.1513    3.3543 H   0  0  0  0  0  0  0  0  0  0  0  0
    5.0325    1.2468    4.1788 H   0  0  0  0  0  0  0  0  0  0  0  0
    5.1812    1.5090    0.1348 H   0  0  0  0  0  0  0  0  0  0  0  0
    5.9544    0.1385    0.9250 H   0  0  0  0  0  0  0  0  0  0  0  0
    3.9837   -0.5682   -0.4162 H   0  0  0  0  0  0  0  0  0  0  0  0
    3.7196   -0.9246    1.2838 H   0  0  0  0  0  0  0  0  0  0  0  0
    2.3255    1.1246    1.5464 H   0  0  0  0  0  0  0  0  0  0  0  0
    2.6147    1.5516   -0.1486 H   0  0  0  0  0  0  0  0  0  0  0  0
    1.5443   -0.6969   -0.6703 H   0  0  0  0  0  0  0  0  0  0  0  0
   -1.8776    1.9673    0.0612 H   0  0  0  0  0  0  0  0  0  0  0  0
   -5.6736    4.2167   -1.1246 H   0  0  0  0  0  0  0  0  0  0  0  0
   -4.7568    6.4973    0.0872 H   0  0  0  0  0  0  0  0  0  0  0  0
   -2.2799    5.7838    1.0859 H   0  0  0  0  0  0  0  0  0  0  0  0
    0.9958   -2.7903   -0.9597 H   0  0  0  0  0  0  0  0  0  0  0  0
    0.5776   -2.7060    0.7605 H   0  0  0  0  0  0  0  0  0  0  0  0
    0.5155   -5.0389   -0.2497 H   0  0  0  0  0  0  0  0  0  0  0  0
   -0.9660   -4.5550    0.5760 H   0  0  0  0  0  0  0  0  0  0  0  0
   -1.4477   -5.6561   -1.6261 H   0  0  0  0  0  0  0  0  0  0  0  0
   -0.5051   -4.4145   -2.4486 H   0  0  0  0  0  0  0  0  0  0  0  0
   -2.7959   -3.7285   -2.6611 H   0  0  0  0  0  0  0  0  0  0  0  0
   -3.1557   -4.1059   -0.9701 H   0  0  0  0  0  0  0  0  0  0  0  0
  1  2  1  0
  2  3  1  0
  3  4  1  0
  4  5  1  0
  5  6  1  0
  6  7  1  0
  7  8  2  0
  7  9  1  0
  9 10  2  0
 10 11  1  0
 11 12  1  0
 12 13  2  0
 12 14  1  0
 14 15  2  0
 15 16  1  0
 16 17  2  0
 17 18  1  0
 10 19  1  0
 19 20  1  0
 20 21  2  0
 21 22  1  0
 22 23  1  0
 23 24  1  0
 24 25  1  0
 21  9  1  0
 18 14  1  0
 25 20  1  0
  1 26  1  0
  1 27  1  0
  1 28  1  0
  3 29  1  0
  3 30  1  0
  4 31  1  0
  4 32  1  0
  5 33  1  0
  5 34  1  0
  6 35  1  0
 11 36  1  0
 15 37  1  0
 16 38  1  0
 17 39  1  0
 22 40  1  0
 22 41  1  0
 23 42  1  0
 23 43  1  0
 24 44  1  0
 24 45  1  0
 25 46  1  0
 25 47  1  0
M  END
$$$$
