
     RDKit          3D

 52 54  0  0  0  0  0  0  0  0999 V2000
    8.8284    1.7134    0.9641 C   0  0  0  0  0  0  0  0  0  0  0  0
    8.4000    0.7963   -0.0345 O   0  0  0  0  0  0  0  0  0  0  0  0
    7.0539    0.5734   -0.1302 C   0  0  0  0  0  0  0  0  0  0  0  0
    6.0670    1.1484    0.6698 C   0  0  0  0  0  0  0  0  0  0  0  0
    4.7201    0.8302    0.4634 C   0  0  0  0  0  0  0  0  0  0  0  0
    4.3431   -0.0634   -0.5470 C   0  0  0  0  0  0  0  0  0  0  0  0
    2.8911   -0.4167   -0.7474 C   0  0  0  0  0  0  0  0  0  0  0  0
    2.4528   -1.5545    0.1771 C   0  0  0  0  0  0  0  0  0  0  0  0
    1.0645   -1.9238   -0.0306 N   0  0  0  0  0  0  0  0  0  0  0  0
    0.0310   -1.1900    0.5057 C   0  0  0  0  0  0  0  0  0  0  0  0
    0.2111   -0.1974    1.2042 O   0  0  0  0  0  0  0  0  0  0  0  0
   -1.3598   -1.6298    0.2073 C   0  0  0  0  0  0  0  0  0  0  0  0
   -2.4151   -0.9728    0.8611 C   0  0  0  0  0  0  0  0  0  0  0  0
   -3.7403   -1.3306    0.5882 C   0  0  0  0  0  0  0  0  0  0  0  0
   -5.0684   -0.5245    1.4575 S   0  0  0  0  0  6  0  0  0  0  0  0
   -4.5259   -0.0422    2.7115 O   0  0  0  0  0  0  0  0  0  0  0  0
   -6.1907   -1.4435    1.4496 O   0  0  0  0  0  0  0  0  0  0  0  0
   -5.5400    0.8848    0.5022 C   0  0  0  0  0  0  0  0  0  0  0  0
   -5.9574    0.5635   -0.9334 C   0  0  0  0  0  0  0  0  0  0  0  0
   -6.2239    1.9131   -1.5852 C   0  0  0  0  0  0  0  0  0  0  0  0
   -4.9520    2.9888   -0.9418 S   0  0  0  0  0  6  0  0  0  0  0  0
   -5.5804    4.1809   -0.4169 O   0  0  0  0  0  0  0  0  0  0  0  0
   -3.8652    3.0294   -1.8964 O   0  0  0  0  0  0  0  0  0  0  0  0
   -4.4587    1.9504    0.4208 C   0  0  0  0  0  0  0  0  0  0  0  0
   -4.0264   -2.3753   -0.2961 C   0  0  0  0  0  0  0  0  0  0  0  0
   -2.9793   -3.0313   -0.9430 C   0  0  0  0  0  0  0  0  0  0  0  0
   -1.6587   -2.6548   -0.6938 C   0  0  0  0  0  0  0  0  0  0  0  0
   -0.6871   -3.3118   -1.3455 F   0  0  0  0  0  0  0  0  0  0  0  0
    5.3365   -0.6416   -1.3438 C   0  0  0  0  0  0  0  0  0  0  0  0
    6.6802   -0.3218   -1.1349 C   0  0  0  0  0  0  0  0  0  0  0  0
    8.4183    2.7129    0.7850 H   0  0  0  0  0  0  0  0  0  0  0  0
    8.5723    1.3538    1.9662 H   0  0  0  0  0  0  0  0  0  0  0  0
    9.9187    1.7860    0.9055 H   0  0  0  0  0  0  0  0  0  0  0  0
    6.3077    1.8471    1.4637 H   0  0  0  0  0  0  0  0  0  0  0  0
    3.9632    1.2866    1.0994 H   0  0  0  0  0  0  0  0  0  0  0  0
    2.2741    0.4755   -0.5812 H   0  0  0  0  0  0  0  0  0  0  0  0
    2.7196   -0.6985   -1.7944 H   0  0  0  0  0  0  0  0  0  0  0  0
    3.0528   -2.4536   -0.0028 H   0  0  0  0  0  0  0  0  0  0  0  0
    2.5847   -1.2711    1.2280 H   0  0  0  0  0  0  0  0  0  0  0  0
    0.8646   -2.7038   -0.6474 H   0  0  0  0  0  0  0  0  0  0  0  0
   -2.1930   -0.1919    1.5889 H   0  0  0  0  0  0  0  0  0  0  0  0
   -6.4080    1.3069    1.0278 H   0  0  0  0  0  0  0  0  0  0  0  0
   -6.8412   -0.0805   -0.9760 H   0  0  0  0  0  0  0  0  0  0  0  0
   -5.1502    0.0541   -1.4711 H   0  0  0  0  0  0  0  0  0  0  0  0
   -6.1618    1.8744   -2.6745 H   0  0  0  0  0  0  0  0  0  0  0  0
   -7.1933    2.3156   -1.2775 H   0  0  0  0  0  0  0  0  0  0  0  0
   -4.3910    2.5496    1.3319 H   0  0  0  0  0  0  0  0  0  0  0  0
   -3.4749    1.5438    0.1777 H   0  0  0  0  0  0  0  0  0  0  0  0
   -5.0517   -2.6933   -0.4783 H   0  0  0  0  0  0  0  0  0  0  0  0
   -3.1811   -3.8440   -1.6361 H   0  0  0  0  0  0  0  0  0  0  0  0
    5.0757   -1.3424   -2.1331 H   0  0  0  0  0  0  0  0  0  0  0  0
    7.4446   -0.7744   -1.7617 H   0  0  0  0  0  0  0  0  0  0  0  0
  1  2  1  0
  2  3  1  0
  3  4  2  0
  4  5  1  0
  5  6  2  0
  6  7  1  0
  7  8  1  0
  8  9  1  0
  9 10  1  0
 10 11  2  0
 10 12  1  0
 12 13  2  0
 13 14  1  0
 14 15  1  0
 15 16  2  0
 15 17  2  0
 15 18  1  0
 18 19  1  0
 19 20  1  0
 20 21  1  0
 21 22  2  0
 21 23  2  0
 21 24  1  0
 14 25  2  0
 25 26  1  0
 26 27  2  0
 27 28  1  0
  6 29  1  0
 29 30  2  0
 30  3  1  0
 27 12  1  0
 24 18  1  0
  1 31  1  0
  1 32  1  0
  1 33  1  0
  4 34  1  0
  5 35  1  0
  7 36  1  0
  7 37  1  0
  8 38  1  0
  8 39  1  0
  9 40  1  0
 13 41  1  0
 18 42  1  0
 19 43  1  0
 19 44  1  0
 20 45  1  0
 20 46  1  0
 24 47  1  0
 24 48  1  0
 25 49  1  0
 26 50  1  0
 29 51  1  0
 30 52  1  0
M  END
$$$$
