
     RDKit          3D

 45 47  0  0  0  0  0  0  0  0999 V2000
   -4.6898    1.0348    2.7330 C   0  0  0  0  0  0  0  0  0  0  0  0
   -4.8604    1.3761    1.3535 O   0  0  0  0  0  0  0  0  0  0  0  0
   -4.8885    0.2351    0.5940 C   0  0  0  0  0  0  0  0  0  0  0  0
   -6.1262   -0.3617    0.3521 C   0  0  0  0  0  0  0  0  0  0  0  0
   -6.1952   -1.5306   -0.4111 C   0  0  0  0  0  0  0  0  0  0  0  0
   -5.0313   -2.0972   -0.9377 C   0  0  0  0  0  0  0  0  0  0  0  0
   -3.7958   -1.4880   -0.7161 C   0  0  0  0  0  0  0  0  0  0  0  0
   -3.7246   -0.3061    0.0332 C   0  0  0  0  0  0  0  0  0  0  0  0
   -2.3960    0.3184    0.2230 C   0  0  0  0  0  0  0  0  0  0  0  0
   -2.2771    1.7346   -0.1765 C   0  0  0  0  0  0  0  0  0  0  0  0
   -1.0687    2.2871   -0.0730 C   0  0  0  0  0  0  0  0  0  0  0  0
    0.0759    1.5054    0.4291 C   0  0  0  0  0  0  0  0  0  0  0  0
    1.1936    2.0152    0.4433 O   0  0  0  0  0  0  0  0  0  0  0  0
   -0.1938    0.2094    0.8404 N   0  0  0  0  0  0  0  0  0  0  0  0
    0.8454   -0.5746    1.5034 C   0  0  0  0  0  0  0  0  0  0  0  0
    1.7612   -1.3409    0.5501 C   0  0  0  0  0  0  0  0  0  0  0  0
    2.1800   -2.4657    0.8275 O   0  0  0  0  0  0  0  0  0  0  0  0
    2.2055   -0.6371   -0.5487 N   0  0  0  0  0  0  0  0  0  0  0  0
    3.2141   -1.1607   -1.4410 C   0  0  0  0  0  0  0  0  0  0  0  0
    4.5230   -0.4326   -1.2600 C   0  0  0  0  0  0  0  0  0  0  0  0
    5.3223   -0.6857   -0.1355 C   0  0  0  0  0  0  0  0  0  0  0  0
    6.5229   -0.0024    0.0488 C   0  0  0  0  0  0  0  0  0  0  0  0
    6.9368    0.9436   -0.8875 C   0  0  0  0  0  0  0  0  0  0  0  0
    6.1489    1.2062   -2.0064 C   0  0  0  0  0  0  0  0  0  0  0  0
    4.9464    0.5236   -2.1911 C   0  0  0  0  0  0  0  0  0  0  0  0
   -1.4241   -0.3972    0.6989 N   0  0  0  0  0  0  0  0  0  0  0  0
   -5.5727    0.5127    3.1184 H   0  0  0  0  0  0  0  0  0  0  0  0
   -4.5770    1.9663    3.2955 H   0  0  0  0  0  0  0  0  0  0  0  0
   -3.7886    0.4309    2.8918 H   0  0  0  0  0  0  0  0  0  0  0  0
   -7.0338    0.0779    0.7594 H   0  0  0  0  0  0  0  0  0  0  0  0
   -7.1571   -2.0021   -0.5950 H   0  0  0  0  0  0  0  0  0  0  0  0
   -5.0872   -3.0121   -1.5264 H   0  0  0  0  0  0  0  0  0  0  0  0
   -2.8943   -1.9285   -1.1383 H   0  0  0  0  0  0  0  0  0  0  0  0
   -3.1388    2.2793   -0.5395 H   0  0  0  0  0  0  0  0  0  0  0  0
   -0.8768    3.3192   -0.3344 H   0  0  0  0  0  0  0  0  0  0  0  0
    0.3617   -1.2868    2.1831 H   0  0  0  0  0  0  0  0  0  0  0  0
    1.4746    0.0939    2.1023 H   0  0  0  0  0  0  0  0  0  0  0  0
    2.0551    0.3703   -0.5616 H   0  0  0  0  0  0  0  0  0  0  0  0
    2.8398   -1.0218   -2.4614 H   0  0  0  0  0  0  0  0  0  0  0  0
    3.3606   -2.2372   -1.2933 H   0  0  0  0  0  0  0  0  0  0  0  0
    5.0056   -1.4202    0.6058 H   0  0  0  0  0  0  0  0  0  0  0  0
    7.1350   -0.2085    0.9222 H   0  0  0  0  0  0  0  0  0  0  0  0
    7.8738    1.4769   -0.7457 H   0  0  0  0  0  0  0  0  0  0  0  0
    6.4719    1.9422   -2.7381 H   0  0  0  0  0  0  0  0  0  0  0  0
    4.3440    0.7387   -3.0690 H   0  0  0  0  0  0  0  0  0  0  0  0
  1  2  1  0
  2  3  1  0
  3  4  2  0
  4  5  1  0
  5  6  2  0
  6  7  1  0
  7  8  2  0
  8  9  1  0
  9 10  1  0
 10 11  2  0
 11 12  1  0
 12 13  2  0
 12 14  1  0
 14 15  1  0
 15 16  1  0
 16 17  2  0
 16 18  1  0
 18 19  1  0
 19 20  1  0
 20 21  2  0
 21 22  1  0
 22 23  2  0
 23 24  1  0
 24 25  2  0
 14 26  1  0
  8  3  1  0
 26  9  2  0
 25 20  1  0
  1 27  1  0
  1 28  1  0
  1 29  1  0
  4 30  1  0
  5 31  1  0
  6 32  1  0
  7 33  1  0
 10 34  1  0
 11 35  1  0
 15 36  1  0
 15 37  1  0
 18 38  1  0
 19 39  1  0
 19 40  1  0
 21 41  1  0
 22 42  1  0
 23 43  1  0
 24 44  1  0
 25 45  1  0
M  END
$$$$
