
     RDKit          3D

 48 50  0  0  0  0  0  0  0  0999 V2000
   -7.0401   -0.2122   -1.3995 C   0  0  0  0  0  0  0  0  0  0  0  0
   -5.5809   -0.2930   -0.9790 C   0  0  0  0  0  0  0  0  0  0  0  0
   -5.2759    0.8180   -0.0832 N   0  0  0  0  0  0  0  0  0  0  0  0
   -3.9905    0.7748    0.4678 C   0  0  0  0  0  0  0  0  0  0  0  0
   -2.8538    0.7796   -0.3142 C   0  0  0  0  0  0  0  0  0  0  0  0
   -1.6260    0.7464    0.3234 C   0  0  0  0  0  0  0  0  0  0  0  0
   -0.4346    0.7675   -0.4346 N   0  0  0  0  0  0  0  0  0  0  0  0
    0.7779    0.9079    0.4050 C   0  0  0  0  0  0  0  0  0  0  0  0
    2.0387    1.0572   -0.4703 C   0  0  0  0  0  0  0  0  0  0  0  0
    2.1751   -0.0258   -1.5014 N   0  0  0  0  0  0  0  0  0  0  0  0
    2.8384   -1.5053   -0.9887 S   0  0  0  0  0  6  0  0  0  0  0  0
    2.1579   -1.9107    0.2210 O   0  0  0  0  0  0  0  0  0  0  0  0
    2.9125   -2.3870   -2.1336 O   0  0  0  0  0  0  0  0  0  0  0  0
    4.5064   -1.0575   -0.5699 C   0  0  0  0  0  0  0  0  0  0  0  0
    4.9565   -1.1765    0.7499 C   0  0  0  0  0  0  0  0  0  0  0  0
    6.2705   -0.8212    1.0568 C   0  0  0  0  0  0  0  0  0  0  0  0
    7.1131   -0.3599    0.0484 C   0  0  0  0  0  0  0  0  0  0  0  0
    8.3729   -0.0195    0.3490 F   0  0  0  0  0  0  0  0  0  0  0  0
    6.6700   -0.2478   -1.2668 C   0  0  0  0  0  0  0  0  0  0  0  0
    5.3582   -0.6006   -1.5833 C   0  0  0  0  0  0  0  0  0  0  0  0
    0.9113   -0.1491   -2.2973 C   0  0  0  0  0  0  0  0  0  0  0  0
   -0.3280   -0.3463   -1.4038 C   0  0  0  0  0  0  0  0  0  0  0  0
   -1.5588    0.7513    1.6649 N   0  0  0  0  0  0  0  0  0  0  0  0
   -2.7138    0.7526    2.3524 C   0  0  0  0  0  0  0  0  0  0  0  0
   -2.6269    0.7849    3.8458 C   0  0  0  0  0  0  0  0  0  0  0  0
   -3.9376    0.7687    1.8026 N   0  0  0  0  0  0  0  0  0  0  0  0
   -7.2484    0.7324   -1.9131 H   0  0  0  0  0  0  0  0  0  0  0  0
   -7.7039   -0.2746   -0.5307 H   0  0  0  0  0  0  0  0  0  0  0  0
   -7.2874   -1.0340   -2.0786 H   0  0  0  0  0  0  0  0  0  0  0  0
   -5.4034   -1.2524   -0.4778 H   0  0  0  0  0  0  0  0  0  0  0  0
   -4.9560   -0.2535   -1.8782 H   0  0  0  0  0  0  0  0  0  0  0  0
   -5.8895    0.8178    0.7328 H   0  0  0  0  0  0  0  0  0  0  0  0
   -2.9280    0.8566   -1.3890 H   0  0  0  0  0  0  0  0  0  0  0  0
    0.8851    0.0469    1.0745 H   0  0  0  0  0  0  0  0  0  0  0  0
    0.7036    1.8091    1.0274 H   0  0  0  0  0  0  0  0  0  0  0  0
    1.9963    2.0121   -1.0103 H   0  0  0  0  0  0  0  0  0  0  0  0
    2.9318    1.1054    0.1599 H   0  0  0  0  0  0  0  0  0  0  0  0
    4.2993   -1.5443    1.5349 H   0  0  0  0  0  0  0  0  0  0  0  0
    6.6457   -0.9043    2.0725 H   0  0  0  0  0  0  0  0  0  0  0  0
    7.3501    0.1093   -2.0341 H   0  0  0  0  0  0  0  0  0  0  0  0
    5.0039   -0.5222   -2.6091 H   0  0  0  0  0  0  0  0  0  0  0  0
    0.9918   -0.9644   -3.0235 H   0  0  0  0  0  0  0  0  0  0  0  0
    0.8012    0.7714   -2.8850 H   0  0  0  0  0  0  0  0  0  0  0  0
   -0.2692   -1.3043   -0.8728 H   0  0  0  0  0  0  0  0  0  0  0  0
   -1.2008   -0.3871   -2.0647 H   0  0  0  0  0  0  0  0  0  0  0  0
   -3.4855    0.2747    4.2927 H   0  0  0  0  0  0  0  0  0  0  0  0
   -2.6134    1.8226    4.1915 H   0  0  0  0  0  0  0  0  0  0  0  0
   -1.7156    0.2864    4.1899 H   0  0  0  0  0  0  0  0  0  0  0  0
  1  2  1  0
  2  3  1  0
  3  4  1  0
  4  5  2  0
  5  6  1  0
  6  7  1  0
  7  8  1  0
  8  9  1  0
  9 10  1  0
 10 11  1  0
 11 12  2  0
 11 13  2  0
 11 14  1  0
 14 15  2  0
 15 16  1  0
 16 17  2  0
 17 18  1  0
 17 19  1  0
 19 20  2  0
 10 21  1  0
 21 22  1  0
  6 23  2  0
 23 24  1  0
 24 25  1  0
 24 26  2  0
 26  4  1  0
 22  7  1  0
 20 14  1  0
  1 27  1  0
  1 28  1  0
  1 29  1  0
  2 30  1  0
  2 31  1  0
  3 32  1  0
  5 33  1  0
  8 34  1  0
  8 35  1  0
  9 36  1  0
  9 37  1  0
 15 38  1  0
 16 39  1  0
 19 40  1  0
 20 41  1  0
 21 42  1  0
 21 43  1  0
 22 44  1  0
 22 45  1  0
 25 46  1  0
 25 47  1  0
 25 48  1  0
M  END
$$$$
