
     RDKit          3D

 43 45  0  0  0  0  0  0  0  0999 V2000
    5.5173    2.1906   -1.4550 C   0  0  0  0  0  0  0  0  0  0  0  0
    4.8892    1.0704   -0.6775 C   0  0  0  0  0  0  0  0  0  0  0  0
    5.6785    0.2443    0.1316 C   0  0  0  0  0  0  0  0  0  0  0  0
    5.0965   -0.7596    0.9136 C   0  0  0  0  0  0  0  0  0  0  0  0
    5.9522   -1.6578    1.7578 C   0  0  0  0  0  0  0  0  0  0  0  0
    3.7092   -0.9510    0.8591 C   0  0  0  0  0  0  0  0  0  0  0  0
    2.9020   -0.1383    0.0448 C   0  0  0  0  0  0  0  0  0  0  0  0
    1.4947   -0.3575    0.0253 N   0  0  0  0  0  0  0  0  0  0  0  0
    0.9066   -1.1219    0.9894 N   0  0  0  0  0  0  0  0  0  0  0  0
   -0.4069   -1.0555    0.8481 N   0  0  0  0  0  0  0  0  0  0  0  0
   -0.6807   -0.3154   -0.2730 C   0  0  0  0  0  0  0  0  0  0  0  0
   -2.0360   -0.0904   -0.7560 C   0  0  0  0  0  0  0  0  0  0  0  0
   -2.2846    0.5172   -1.7943 O   0  0  0  0  0  0  0  0  0  0  0  0
   -3.0096   -0.6247    0.0632 N   0  0  0  0  0  0  0  0  0  0  0  0
   -4.4144   -0.3839   -0.1595 C   0  0  0  0  0  0  0  0  0  0  0  0
   -5.3054   -1.3526    0.6073 C   0  0  0  0  0  0  0  0  0  0  0  0
   -6.6655   -0.6716    0.5767 C   0  0  0  0  0  0  0  0  0  0  0  0
   -6.3717    0.8280    0.6047 C   0  0  0  0  0  0  0  0  0  0  0  0
   -4.8712    0.9785    0.3580 C   0  0  0  0  0  0  0  0  0  0  0  0
    0.5062    0.1049   -0.8535 C   0  0  0  0  0  0  0  0  0  0  0  0
    0.7207    0.7796   -2.0221 N   0  0  0  0  0  0  0  0  0  0  0  0
    3.4986    0.8863   -0.7011 C   0  0  0  0  0  0  0  0  0  0  0  0
    5.5287    3.1037   -0.8521 H   0  0  0  0  0  0  0  0  0  0  0  0
    4.9622    2.3821   -2.3794 H   0  0  0  0  0  0  0  0  0  0  0  0
    6.5449    1.9415   -1.7399 H   0  0  0  0  0  0  0  0  0  0  0  0
    6.7566    0.3926    0.1629 H   0  0  0  0  0  0  0  0  0  0  0  0
    5.4128   -1.9809    2.6544 H   0  0  0  0  0  0  0  0  0  0  0  0
    6.2469   -2.5414    1.1834 H   0  0  0  0  0  0  0  0  0  0  0  0
    6.8550   -1.1366    2.0931 H   0  0  0  0  0  0  0  0  0  0  0  0
    3.2683   -1.7494    1.4551 H   0  0  0  0  0  0  0  0  0  0  0  0
   -2.6973   -1.0094    0.9493 H   0  0  0  0  0  0  0  0  0  0  0  0
   -4.6205   -0.4552   -1.2353 H   0  0  0  0  0  0  0  0  0  0  0  0
   -5.3283   -2.3482    0.1534 H   0  0  0  0  0  0  0  0  0  0  0  0
   -4.9643   -1.4662    1.6441 H   0  0  0  0  0  0  0  0  0  0  0  0
   -7.3006   -0.9837    1.4112 H   0  0  0  0  0  0  0  0  0  0  0  0
   -7.1900   -0.9262   -0.3521 H   0  0  0  0  0  0  0  0  0  0  0  0
   -6.6473    1.2683    1.5690 H   0  0  0  0  0  0  0  0  0  0  0  0
   -6.9521    1.3438   -0.1681 H   0  0  0  0  0  0  0  0  0  0  0  0
   -4.3669    1.2270    1.3006 H   0  0  0  0  0  0  0  0  0  0  0  0
   -4.6499    1.7846   -0.3491 H   0  0  0  0  0  0  0  0  0  0  0  0
    1.5203    0.5164   -2.5971 H   0  0  0  0  0  0  0  0  0  0  0  0
   -0.1058    0.9289   -2.6121 H   0  0  0  0  0  0  0  0  0  0  0  0
    2.9017    1.5888   -1.2752 H   0  0  0  0  0  0  0  0  0  0  0  0
  1  2  1  0
  2  3  2  0
  3  4  1  0
  4  5  1  0
  4  6  2  0
  6  7  1  0
  7  8  1  0
  8  9  1  0
  9 10  2  0
 10 11  1  0
 11 12  1  0
 12 13  2  0
 12 14  1  0
 14 15  1  0
 15 16  1  0
 16 17  1  0
 17 18  1  0
 18 19  1  0
 11 20  2  0
 20 21  1  0
  7 22  2  0
 22  2  1  0
 20  8  1  0
 19 15  1  0
  1 23  1  0
  1 24  1  0
  1 25  1  0
  3 26  1  0
  5 27  1  0
  5 28  1  0
  5 29  1  0
  6 30  1  0
 14 31  1  0
 15 32  1  0
 16 33  1  0
 16 34  1  0
 17 35  1  0
 17 36  1  0
 18 37  1  0
 18 38  1  0
 19 39  1  0
 19 40  1  0
 21 41  1  0
 21 42  1  0
 22 43  1  0
M  END
$$$$
