
     RDKit          3D

 50 52  0  0  0  0  0  0  0  0999 V2000
   -5.9442   -0.0049    2.3482 C   0  0  0  0  0  0  0  0  0  0  0  0
   -5.1581    0.1038    1.1469 N   0  0  0  0  0  0  0  0  0  0  0  0
   -3.9917   -0.6048    0.9810 C   0  0  0  0  0  0  0  0  0  0  0  0
   -3.6016   -1.4374    1.7946 O   0  0  0  0  0  0  0  0  0  0  0  0
   -3.1851   -0.3373   -0.2547 C   0  0  0  0  0  0  0  0  0  0  0  0
   -2.2159   -1.3064   -0.5737 C   0  0  0  0  0  0  0  0  0  0  0  0
   -1.3890   -1.1388   -1.6850 C   0  0  0  0  0  0  0  0  0  0  0  0
   -0.1798   -2.3854   -2.0845 S   0  0  0  0  0  6  0  0  0  0  0  0
    0.1245   -2.2458   -3.4931 O   0  0  0  0  0  0  0  0  0  0  0  0
   -0.6541   -3.6401   -1.5428 O   0  0  0  0  0  0  0  0  0  0  0  0
    1.1809   -1.9088   -1.2050 N   0  0  0  0  0  0  0  0  0  0  0  0
    1.1538   -2.1245    0.2727 C   0  0  0  0  0  0  0  0  0  0  0  0
    2.4179   -1.5556    0.9441 C   0  0  0  0  0  0  0  0  0  0  0  0
    2.5454   -0.0913    0.7138 N   0  0  0  0  0  0  0  0  0  0  0  0
    3.8330    0.3804    1.0380 C   0  0  0  0  0  0  0  0  0  0  0  0
    4.2085    0.4091    2.3917 C   0  0  0  0  0  0  0  0  0  0  0  0
    5.4704    0.8608    2.7950 C   0  0  0  0  0  0  0  0  0  0  0  0
    6.3940    1.2926    1.8483 C   0  0  0  0  0  0  0  0  0  0  0  0
    6.0532    1.2710    0.5008 C   0  0  0  0  0  0  0  0  0  0  0  0
    4.7917    0.8206    0.1073 C   0  0  0  0  0  0  0  0  0  0  0  0
    4.5351    0.7864   -1.2095 F   0  0  0  0  0  0  0  0  0  0  0  0
    1.9120    0.3956   -0.5305 C   0  0  0  0  0  0  0  0  0  0  0  0
    1.9036   -0.6730   -1.6358 C   0  0  0  0  0  0  0  0  0  0  0  0
   -1.5518   -0.0349   -2.5209 C   0  0  0  0  0  0  0  0  0  0  0  0
   -2.5140    0.9315   -2.2138 C   0  0  0  0  0  0  0  0  0  0  0  0
   -3.3282    0.8027   -1.0770 C   0  0  0  0  0  0  0  0  0  0  0  0
   -4.2765    1.7319   -0.7267 O   0  0  0  0  0  0  0  0  0  0  0  0
   -4.2660    2.9824   -1.4060 C   0  0  0  0  0  0  0  0  0  0  0  0
   -6.9349    0.4092    2.1527 H   0  0  0  0  0  0  0  0  0  0  0  0
   -5.4534    0.5660    3.1432 H   0  0  0  0  0  0  0  0  0  0  0  0
   -6.0302   -1.0515    2.6523 H   0  0  0  0  0  0  0  0  0  0  0  0
   -5.3290    0.8824    0.5162 H   0  0  0  0  0  0  0  0  0  0  0  0
   -2.1133   -2.1946    0.0503 H   0  0  0  0  0  0  0  0  0  0  0  0
    0.2738   -1.6419    0.7087 H   0  0  0  0  0  0  0  0  0  0  0  0
    1.1004   -3.1995    0.4745 H   0  0  0  0  0  0  0  0  0  0  0  0
    2.3642   -1.7576    2.0205 H   0  0  0  0  0  0  0  0  0  0  0  0
    3.2963   -2.0801    0.5428 H   0  0  0  0  0  0  0  0  0  0  0  0
    3.4973    0.0954    3.1524 H   0  0  0  0  0  0  0  0  0  0  0  0
    5.7257    0.8774    3.8507 H   0  0  0  0  0  0  0  0  0  0  0  0
    7.3745    1.6425    2.1592 H   0  0  0  0  0  0  0  0  0  0  0  0
    6.7627    1.5949   -0.2534 H   0  0  0  0  0  0  0  0  0  0  0  0
    0.8736    0.6490   -0.2818 H   0  0  0  0  0  0  0  0  0  0  0  0
    2.3527    1.3316   -0.8899 H   0  0  0  0  0  0  0  0  0  0  0  0
    1.4585   -0.2485   -2.5399 H   0  0  0  0  0  0  0  0  0  0  0  0
    2.9264   -0.9679   -1.8963 H   0  0  0  0  0  0  0  0  0  0  0  0
   -0.9438    0.0792   -3.4168 H   0  0  0  0  0  0  0  0  0  0  0  0
   -2.6106    1.7728   -2.8943 H   0  0  0  0  0  0  0  0  0  0  0  0
   -4.5693    2.8610   -2.4496 H   0  0  0  0  0  0  0  0  0  0  0  0
   -5.0009    3.6325   -0.9197 H   0  0  0  0  0  0  0  0  0  0  0  0
   -3.2888    3.4681   -1.3286 H   0  0  0  0  0  0  0  0  0  0  0  0
  1  2  1  0
  2  3  1  0
  3  4  2  0
  3  5  1  0
  5  6  2  0
  6  7  1  0
  7  8  1  0
  8  9  2  0
  8 10  2  0
  8 11  1  0
 11 12  1  0
 12 13  1  0
 13 14  1  0
 14 15  1  0
 15 16  2  0
 16 17  1  0
 17 18  2  0
 18 19  1  0
 19 20  2  0
 20 21  1  0
 14 22  1  0
 22 23  1  0
  7 24  2  0
 24 25  1  0
 25 26  2  0
 26 27  1  0
 27 28  1  0
 26  5  1  0
 23 11  1  0
 20 15  1  0
  1 29  1  0
  1 30  1  0
  1 31  1  0
  2 32  1  0
  6 33  1  0
 12 34  1  0
 12 35  1  0
 13 36  1  0
 13 37  1  0
 16 38  1  0
 17 39  1  0
 18 40  1  0
 19 41  1  0
 22 42  1  0
 22 43  1  0
 23 44  1  0
 23 45  1  0
 24 46  1  0
 25 47  1  0
 28 48  1  0
 28 49  1  0
 28 50  1  0
M  END
$$$$
