
     RDKit          3D

 40 42  0  0  0  0  0  0  0  0999 V2000
   -6.7818    1.4013   -0.0860 C   0  0  0  0  0  0  0  0  0  0  0  0
   -5.3393    0.9948   -0.1485 C   0  0  0  0  0  0  0  0  0  0  0  0
   -4.9460   -0.2899    0.2405 C   0  0  0  0  0  0  0  0  0  0  0  0
   -3.5978   -0.6649    0.2120 C   0  0  0  0  0  0  0  0  0  0  0  0
   -2.6184    0.2510   -0.1884 C   0  0  0  0  0  0  0  0  0  0  0  0
   -1.2370   -0.0932   -0.2303 N   0  0  0  0  0  0  0  0  0  0  0  0
   -0.3603    0.6868   -0.9180 N   0  0  0  0  0  0  0  0  0  0  0  0
    0.8161    0.0833   -0.9488 N   0  0  0  0  0  0  0  0  0  0  0  0
    0.7498   -1.0410   -0.1685 C   0  0  0  0  0  0  0  0  0  0  0  0
    1.8744   -1.9513    0.0755 C   0  0  0  0  0  0  0  0  0  0  0  0
    1.6705   -3.0729    0.5506 O   0  0  0  0  0  0  0  0  0  0  0  0
    3.1625   -1.5515   -0.3268 N   0  0  0  0  0  0  0  0  0  0  0  0
    4.1054   -2.6126   -0.6628 C   0  0  0  0  0  0  0  0  0  0  0  0
    3.6982   -0.2314   -0.1477 C   0  0  0  0  0  0  0  0  0  0  0  0
    3.1860    0.6447    0.8216 C   0  0  0  0  0  0  0  0  0  0  0  0
    3.7395    1.9155    1.0128 C   0  0  0  0  0  0  0  0  0  0  0  0
    4.8240    2.3286    0.2465 C   0  0  0  0  0  0  0  0  0  0  0  0
    5.3588    1.4691   -0.7070 C   0  0  0  0  0  0  0  0  0  0  0  0
    4.8048    0.1985   -0.8971 C   0  0  0  0  0  0  0  0  0  0  0  0
   -0.5412   -1.1715    0.3307 C   0  0  0  0  0  0  0  0  0  0  0  0
   -1.0597   -2.0954    1.1929 N   0  0  0  0  0  0  0  0  0  0  0  0
   -3.0146    1.5377   -0.5880 C   0  0  0  0  0  0  0  0  0  0  0  0
   -4.3623    1.9080   -0.5554 C   0  0  0  0  0  0  0  0  0  0  0  0
   -7.0094    2.1536   -0.8486 H   0  0  0  0  0  0  0  0  0  0  0  0
   -7.0108    1.8165    0.9002 H   0  0  0  0  0  0  0  0  0  0  0  0
   -7.4377    0.5440   -0.2704 H   0  0  0  0  0  0  0  0  0  0  0  0
   -5.6916   -1.0181    0.5543 H   0  0  0  0  0  0  0  0  0  0  0  0
   -3.3586   -1.6936    0.4615 H   0  0  0  0  0  0  0  0  0  0  0  0
    4.9499   -2.5906    0.0336 H   0  0  0  0  0  0  0  0  0  0  0  0
    3.6420   -3.6022   -0.6086 H   0  0  0  0  0  0  0  0  0  0  0  0
    4.4556   -2.4788   -1.6906 H   0  0  0  0  0  0  0  0  0  0  0  0
    2.3639    0.3562    1.4696 H   0  0  0  0  0  0  0  0  0  0  0  0
    3.3208    2.5794    1.7648 H   0  0  0  0  0  0  0  0  0  0  0  0
    5.2507    3.3173    0.3923 H   0  0  0  0  0  0  0  0  0  0  0  0
    6.2045    1.7872   -1.3113 H   0  0  0  0  0  0  0  0  0  0  0  0
    5.2421   -0.4288   -1.6678 H   0  0  0  0  0  0  0  0  0  0  0  0
   -0.4032   -2.7850    1.5738 H   0  0  0  0  0  0  0  0  0  0  0  0
   -1.7230   -1.7925    1.9045 H   0  0  0  0  0  0  0  0  0  0  0  0
   -2.2847    2.2761   -0.9165 H   0  0  0  0  0  0  0  0  0  0  0  0
   -4.6420    2.9158   -0.8553 H   0  0  0  0  0  0  0  0  0  0  0  0
  1  2  1  0
  2  3  2  0
  3  4  1  0
  4  5  2  0
  5  6  1  0
  6  7  1  0
  7  8  2  0
  8  9  1  0
  9 10  1  0
 10 11  2  0
 10 12  1  0
 12 13  1  0
 12 14  1  0
 14 15  2  0
 15 16  1  0
 16 17  2  0
 17 18  1  0
 18 19  2  0
  9 20  2  0
 20 21  1  0
  5 22  1  0
 22 23  2  0
 23  2  1  0
 20  6  1  0
 19 14  1  0
  1 24  1  0
  1 25  1  0
  1 26  1  0
  3 27  1  0
  4 28  1  0
 13 29  1  0
 13 30  1  0
 13 31  1  0
 15 32  1  0
 16 33  1  0
 17 34  1  0
 18 35  1  0
 19 36  1  0
 21 37  1  0
 21 38  1  0
 22 39  1  0
 23 40  1  0
M  END
$$$$
