
     RDKit          3D

 52 55  0  0  0  0  0  0  0  0999 V2000
    8.4184   -1.6312   -1.0319 C   0  0  0  0  0  0  0  0  0  0  0  0
    7.6289   -0.6412   -0.3864 O   0  0  0  0  0  0  0  0  0  0  0  0
    6.2498   -1.0066   -0.3520 C   0  0  0  0  0  0  0  0  0  0  0  0
    5.4747    0.1039    0.3502 C   0  0  0  0  0  0  0  0  0  0  0  0
    3.9793   -0.2219    0.4118 C   0  0  0  0  0  0  0  0  0  0  0  0
    3.2085    0.7540    1.1999 N   0  0  0  0  0  0  0  0  0  0  0  0
    3.1441    2.0772    0.5748 C   0  0  0  0  0  0  0  0  0  0  0  0
    2.5179    2.1013   -0.7143 O   0  0  0  0  0  0  0  0  0  0  0  0
    1.3161    1.4453   -0.7539 C   0  0  0  0  0  0  0  0  0  0  0  0
    0.5113    1.6826   -1.8679 C   0  0  0  0  0  0  0  0  0  0  0  0
   -0.7202    1.0399   -1.9838 C   0  0  0  0  0  0  0  0  0  0  0  0
   -1.1392    0.1604   -0.9799 C   0  0  0  0  0  0  0  0  0  0  0  0
   -2.4418   -0.5254   -1.0911 C   0  0  0  0  0  0  0  0  0  0  0  0
   -3.1107   -0.4262   -2.1128 O   0  0  0  0  0  0  0  0  0  0  0  0
   -2.8471   -1.3463    0.0830 C   0  0  0  0  0  0  0  0  0  0  0  0
   -4.0804   -1.9808    0.1550 O   0  0  0  0  0  0  0  0  0  0  0  0
   -5.1983   -1.2553   -0.1979 C   0  0  0  0  0  0  0  0  0  0  0  0
   -6.0255   -1.8352   -1.1644 C   0  0  0  0  0  0  0  0  0  0  0  0
   -7.1939   -1.1888   -1.5590 C   0  0  0  0  0  0  0  0  0  0  0  0
   -7.5416    0.0271   -0.9753 C   0  0  0  0  0  0  0  0  0  0  0  0
   -6.7269    0.5980    0.0092 C   0  0  0  0  0  0  0  0  0  0  0  0
   -5.5493   -0.0395    0.4151 C   0  0  0  0  0  0  0  0  0  0  0  0
   -4.7120    0.4240    1.3967 O   0  0  0  0  0  0  0  0  0  0  0  0
   -4.9963    1.7033    1.9466 C   0  0  0  0  0  0  0  0  0  0  0  0
   -1.9498   -1.5086    1.0620 C   0  0  0  0  0  0  0  0  0  0  0  0
   -0.6996   -0.9493    1.1315 O   0  0  0  0  0  0  0  0  0  0  0  0
   -0.3252   -0.0875    0.1283 C   0  0  0  0  0  0  0  0  0  0  0  0
    0.9228    0.5427    0.2412 C   0  0  0  0  0  0  0  0  0  0  0  0
    1.8253    0.3054    1.4221 C   0  0  0  0  0  0  0  0  0  0  0  0
    8.0969   -1.7608   -2.0698 H   0  0  0  0  0  0  0  0  0  0  0  0
    9.4597   -1.2980   -1.0277 H   0  0  0  0  0  0  0  0  0  0  0  0
    8.3536   -2.5827   -0.4954 H   0  0  0  0  0  0  0  0  0  0  0  0
    5.8812   -1.1368   -1.3761 H   0  0  0  0  0  0  0  0  0  0  0  0
    6.1368   -1.9517    0.1917 H   0  0  0  0  0  0  0  0  0  0  0  0
    5.6550    1.0439   -0.1837 H   0  0  0  0  0  0  0  0  0  0  0  0
    5.8787    0.2440    1.3609 H   0  0  0  0  0  0  0  0  0  0  0  0
    3.5849   -0.3311   -0.6060 H   0  0  0  0  0  0  0  0  0  0  0  0
    3.8820   -1.2056    0.8899 H   0  0  0  0  0  0  0  0  0  0  0  0
    2.6182    2.7855    1.2310 H   0  0  0  0  0  0  0  0  0  0  0  0
    4.1467    2.5012    0.4588 H   0  0  0  0  0  0  0  0  0  0  0  0
    0.8427    2.3694   -2.6426 H   0  0  0  0  0  0  0  0  0  0  0  0
   -1.3501    1.2261   -2.8512 H   0  0  0  0  0  0  0  0  0  0  0  0
   -5.7454   -2.7802   -1.6209 H   0  0  0  0  0  0  0  0  0  0  0  0
   -7.8282   -1.6305   -2.3228 H   0  0  0  0  0  0  0  0  0  0  0  0
   -8.4527    0.5337   -1.2841 H   0  0  0  0  0  0  0  0  0  0  0  0
   -7.0477    1.5388    0.4433 H   0  0  0  0  0  0  0  0  0  0  0  0
   -5.9464    1.6955    2.4905 H   0  0  0  0  0  0  0  0  0  0  0  0
   -4.9868    2.4788    1.1735 H   0  0  0  0  0  0  0  0  0  0  0  0
   -4.2050    1.9408    2.6642 H   0  0  0  0  0  0  0  0  0  0  0  0
   -2.1467   -2.1092    1.9404 H   0  0  0  0  0  0  0  0  0  0  0  0
    1.8181   -0.7527    1.7115 H   0  0  0  0  0  0  0  0  0  0  0  0
    1.4150    0.8598    2.2765 H   0  0  0  0  0  0  0  0  0  0  0  0
  1  2  1  0
  2  3  1  0
  3  4  1  0
  4  5  1  0
  5  6  1  0
  6  7  1  0
  7  8  1  0
  8  9  1  0
  9 10  2  0
 10 11  1  0
 11 12  2  0
 12 13  1  0
 13 14  2  0
 13 15  1  0
 15 16  1  0
 16 17  1  0
 17 18  2  0
 18 19  1  0
 19 20  2  0
 20 21  1  0
 21 22  2  0
 22 23  1  0
 23 24  1  0
 15 25  2  0
 25 26  1  0
 26 27  1  0
 27 28  2  0
 28 29  1  0
 29  6  1  0
 28  9  1  0
 27 12  1  0
 22 17  1  0
  1 30  1  0
  1 31  1  0
  1 32  1  0
  3 33  1  0
  3 34  1  0
  4 35  1  0
  4 36  1  0
  5 37  1  0
  5 38  1  0
  7 39  1  0
  7 40  1  0
 10 41  1  0
 11 42  1  0
 18 43  1  0
 19 44  1  0
 20 45  1  0
 21 46  1  0
 24 47  1  0
 24 48  1  0
 24 49  1  0
 25 50  1  0
 29 51  1  0
 29 52  1  0
M  END
$$$$
