
     RDKit          3D

 43 46  0  0  0  0  0  0  0  0999 V2000
   -5.2431   -2.0346    1.2337 C   0  0  0  0  0  0  0  0  0  0  0  0
   -4.1822   -1.0077    0.9705 C   0  0  0  0  0  0  0  0  0  0  0  0
   -4.4884    0.1671    0.2748 C   0  0  0  0  0  0  0  0  0  0  0  0
   -3.5078    1.1387    0.0573 C   0  0  0  0  0  0  0  0  0  0  0  0
   -2.2050    0.9584    0.5428 C   0  0  0  0  0  0  0  0  0  0  0  0
   -1.1359    2.0034    0.3008 C   0  0  0  0  0  0  0  0  0  0  0  0
   -0.1971    1.6034   -0.7481 N   0  0  0  0  0  0  0  0  0  0  0  0
   -0.7175    1.4360   -2.1034 C   0  0  0  0  0  0  0  0  0  0  0  0
    0.4279    1.4690   -3.1117 C   0  0  0  0  0  0  0  0  0  0  0  0
    1.4486    0.3927   -2.7646 C   0  0  0  0  0  0  0  0  0  0  0  0
    1.7507    0.3925   -1.3499 N   0  0  0  0  0  0  0  0  0  0  0  0
    0.9460    0.9665   -0.3876 C   0  0  0  0  0  0  0  0  0  0  0  0
    1.4683    0.8067    0.8123 N   0  0  0  0  0  0  0  0  0  0  0  0
    2.6126    0.0990    0.6042 C   0  0  0  0  0  0  0  0  0  0  0  0
    2.8113   -0.1776   -0.7174 C   0  0  0  0  0  0  0  0  0  0  0  0
    3.9251   -0.9162   -1.1903 C   0  0  0  0  0  0  0  0  0  0  0  0
    4.1382   -1.2021   -2.3628 O   0  0  0  0  0  0  0  0  0  0  0  0
    4.7692   -1.2979   -0.1710 N   0  0  0  0  0  0  0  0  0  0  0  0
    4.6198   -1.0476    1.1820 C   0  0  0  0  0  0  0  0  0  0  0  0
    5.4719   -1.4741    1.9617 O   0  0  0  0  0  0  0  0  0  0  0  0
    3.4989   -0.3224    1.5731 N   0  0  0  0  0  0  0  0  0  0  0  0
    3.2628   -0.0149    2.9698 C   0  0  0  0  0  0  0  0  0  0  0  0
   -1.9064   -0.2135    1.2508 C   0  0  0  0  0  0  0  0  0  0  0  0
   -2.8865   -1.1847    1.4673 C   0  0  0  0  0  0  0  0  0  0  0  0
   -5.9815   -2.0495    0.4251 H   0  0  0  0  0  0  0  0  0  0  0  0
   -5.7540   -1.8119    2.1755 H   0  0  0  0  0  0  0  0  0  0  0  0
   -4.8089   -3.0381    1.2948 H   0  0  0  0  0  0  0  0  0  0  0  0
   -5.4946    0.3336   -0.1030 H   0  0  0  0  0  0  0  0  0  0  0  0
   -3.7696    2.0400   -0.4918 H   0  0  0  0  0  0  0  0  0  0  0  0
   -0.6252    2.2270    1.2471 H   0  0  0  0  0  0  0  0  0  0  0  0
   -1.6085    2.9497    0.0070 H   0  0  0  0  0  0  0  0  0  0  0  0
   -1.2605    0.4861   -2.1858 H   0  0  0  0  0  0  0  0  0  0  0  0
   -1.4220    2.2421   -2.3394 H   0  0  0  0  0  0  0  0  0  0  0  0
    0.9104    2.4546   -3.0819 H   0  0  0  0  0  0  0  0  0  0  0  0
    0.0513    1.3205   -4.1292 H   0  0  0  0  0  0  0  0  0  0  0  0
    1.0636   -0.6044   -3.0056 H   0  0  0  0  0  0  0  0  0  0  0  0
    2.3769    0.5607   -3.3190 H   0  0  0  0  0  0  0  0  0  0  0  0
    5.5842   -1.8290   -0.4331 H   0  0  0  0  0  0  0  0  0  0  0  0
    3.2267    1.0717    3.0958 H   0  0  0  0  0  0  0  0  0  0  0  0
    2.3070   -0.4520    3.2756 H   0  0  0  0  0  0  0  0  0  0  0  0
    4.0528   -0.4162    3.6102 H   0  0  0  0  0  0  0  0  0  0  0  0
   -0.9010   -0.3726    1.6372 H   0  0  0  0  0  0  0  0  0  0  0  0
   -2.6283   -2.0812    2.0263 H   0  0  0  0  0  0  0  0  0  0  0  0
  1  2  1  0
  2  3  2  0
  3  4  1  0
  4  5  2  0
  5  6  1  0
  6  7  1  0
  7  8  1  0
  8  9  1  0
  9 10  1  0
 10 11  1  0
 11 12  1  0
 12 13  2  0
 13 14  1  0
 14 15  2  0
 15 16  1  0
 16 17  2  0
 16 18  1  0
 18 19  1  0
 19 20  2  0
 19 21  1  0
 21 22  1  0
  5 23  1  0
 23 24  2  0
 24  2  1  0
 12  7  1  0
 21 14  1  0
 15 11  1  0
  1 25  1  0
  1 26  1  0
  1 27  1  0
  3 28  1  0
  4 29  1  0
  6 30  1  0
  6 31  1  0
  8 32  1  0
  8 33  1  0
  9 34  1  0
  9 35  1  0
 10 36  1  0
 10 37  1  0
 18 38  1  0
 22 39  1  0
 22 40  1  0
 22 41  1  0
 23 42  1  0
 24 43  1  0
M  END
$$$$
