
     RDKit          3D

 45 46  0  0  0  0  0  0  0  0999 V2000
    7.1181   -1.4596    1.4577 C   0  0  0  0  0  0  0  0  0  0  0  0
    6.0850   -1.6087    0.4928 O   0  0  0  0  0  0  0  0  0  0  0  0
    4.9361   -0.8070    0.7716 C   0  0  0  0  0  0  0  0  0  0  0  0
    5.1209    0.6111    0.2362 C   0  0  0  0  0  0  0  0  0  0  0  0
    3.8852    1.4738    0.4550 C   0  0  0  0  0  0  0  0  0  0  0  0
    2.7638    1.0401   -0.3542 N   0  0  0  0  0  0  0  0  0  0  0  0
    1.4630    1.2927    0.0211 C   0  0  0  0  0  0  0  0  0  0  0  0
    1.1633    1.7797    1.1067 O   0  0  0  0  0  0  0  0  0  0  0  0
    0.3827    0.9451   -0.9439 C   0  0  0  0  0  0  0  0  0  0  0  0
   -0.9435    1.2289   -0.5796 C   0  0  0  0  0  0  0  0  0  0  0  0
   -1.9921    0.8944   -1.4437 C   0  0  0  0  0  0  0  0  0  0  0  0
   -3.6623    1.2695   -0.9611 S   0  0  0  0  0  6  0  0  0  0  0  0
   -4.5267    0.9152   -2.0695 O   0  0  0  0  0  0  0  0  0  0  0  0
   -3.6472    2.6165   -0.4291 O   0  0  0  0  0  0  0  0  0  0  0  0
   -4.0045    0.1530    0.3734 C   0  0  0  0  0  0  0  0  0  0  0  0
   -5.4216    0.3497    0.9240 C   0  0  0  0  0  0  0  0  0  0  0  0
   -5.6498   -0.7864    1.9106 C   0  0  0  0  0  0  0  0  0  0  0  0
   -4.8031   -2.1923    1.2065 S   0  0  0  0  0  6  0  0  0  0  0  0
   -5.7694   -3.0589    0.5687 O   0  0  0  0  0  0  0  0  0  0  0  0
   -3.8362   -2.6760    2.1687 O   0  0  0  0  0  0  0  0  0  0  0  0
   -3.9214   -1.3030   -0.0569 C   0  0  0  0  0  0  0  0  0  0  0  0
   -1.7377    0.3006   -2.6821 C   0  0  0  0  0  0  0  0  0  0  0  0
   -0.4202    0.0255   -3.0478 C   0  0  0  0  0  0  0  0  0  0  0  0
    0.6274    0.3453   -2.1823 C   0  0  0  0  0  0  0  0  0  0  0  0
    1.8771    0.0656   -2.5824 F   0  0  0  0  0  0  0  0  0  0  0  0
    7.9411   -2.1248    1.1822 H   0  0  0  0  0  0  0  0  0  0  0  0
    7.4957   -0.4339    1.4743 H   0  0  0  0  0  0  0  0  0  0  0  0
    6.7594   -1.7461    2.4510 H   0  0  0  0  0  0  0  0  0  0  0  0
    4.0931   -1.2870    0.2633 H   0  0  0  0  0  0  0  0  0  0  0  0
    4.7135   -0.8100    1.8452 H   0  0  0  0  0  0  0  0  0  0  0  0
    5.3783    0.5680   -0.8294 H   0  0  0  0  0  0  0  0  0  0  0  0
    5.9750    1.0843    0.7336 H   0  0  0  0  0  0  0  0  0  0  0  0
    3.6018    1.4829    1.5133 H   0  0  0  0  0  0  0  0  0  0  0  0
    4.1001    2.5076    0.1627 H   0  0  0  0  0  0  0  0  0  0  0  0
    2.9499    0.7683   -1.3147 H   0  0  0  0  0  0  0  0  0  0  0  0
   -1.1490    1.7213    0.3708 H   0  0  0  0  0  0  0  0  0  0  0  0
   -3.2797    0.3602    1.1702 H   0  0  0  0  0  0  0  0  0  0  0  0
   -5.5461    1.3254    1.4046 H   0  0  0  0  0  0  0  0  0  0  0  0
   -6.1588    0.2899    0.1136 H   0  0  0  0  0  0  0  0  0  0  0  0
   -5.1877   -0.5665    2.8773 H   0  0  0  0  0  0  0  0  0  0  0  0
   -6.7081   -1.0187    2.0447 H   0  0  0  0  0  0  0  0  0  0  0  0
   -2.8939   -1.6705   -0.1098 H   0  0  0  0  0  0  0  0  0  0  0  0
   -4.4258   -1.4923   -1.0089 H   0  0  0  0  0  0  0  0  0  0  0  0
   -2.5470    0.0597   -3.3697 H   0  0  0  0  0  0  0  0  0  0  0  0
   -0.1987   -0.4328   -4.0085 H   0  0  0  0  0  0  0  0  0  0  0  0
  1  2  1  0
  2  3  1  0
  3  4  1  0
  4  5  1  0
  5  6  1  0
  6  7  1  0
  7  8  2  0
  7  9  1  0
  9 10  2  0
 10 11  1  0
 11 12  1  0
 12 13  2  0
 12 14  2  0
 12 15  1  0
 15 16  1  0
 16 17  1  0
 17 18  1  0
 18 19  2  0
 18 20  2  0
 18 21  1  0
 11 22  2  0
 22 23  1  0
 23 24  2  0
 24 25  1  0
 24  9  1  0
 21 15  1  0
  1 26  1  0
  1 27  1  0
  1 28  1  0
  3 29  1  0
  3 30  1  0
  4 31  1  0
  4 32  1  0
  5 33  1  0
  5 34  1  0
  6 35  1  0
 10 36  1  0
 15 37  1  0
 16 38  1  0
 16 39  1  0
 17 40  1  0
 17 41  1  0
 21 42  1  0
 21 43  1  0
 22 44  1  0
 23 45  1  0
M  END
$$$$
