
     RDKit          3D

 43 45  0  0  0  0  0  0  0  0999 V2000
   -3.7276    1.9215   -1.2986 C   0  0  0  0  0  0  0  0  0  0  0  0
   -2.7446    0.7847   -1.5870 C   0  0  0  0  0  0  0  0  0  0  0  0
   -1.2895    1.3218   -1.6327 C   0  0  0  0  0  0  0  0  0  0  0  0
   -1.0037    2.5050   -1.7762 O   0  0  0  0  0  0  0  0  0  0  0  0
   -0.3442    0.3178   -1.5848 N   0  0  0  0  0  0  0  0  0  0  0  0
    1.0805    0.5420   -1.7081 C   0  0  0  0  0  0  0  0  0  0  0  0
    1.8685    0.0305   -0.5009 C   0  0  0  0  0  0  0  0  0  0  0  0
    1.6355    0.8957    0.7347 C   0  0  0  0  0  0  0  0  0  0  0  0
    2.3066    0.3333    1.8721 O   0  0  0  0  0  0  0  0  0  0  0  0
    3.5928   -0.0296    1.5639 C   0  0  0  0  0  0  0  0  0  0  0  0
    4.4456   -0.2908    2.6348 C   0  0  0  0  0  0  0  0  0  0  0  0
    5.7743   -0.6453    2.3955 C   0  0  0  0  0  0  0  0  0  0  0  0
    6.2475   -0.7376    1.0867 C   0  0  0  0  0  0  0  0  0  0  0  0
    5.3892   -0.4919    0.0137 C   0  0  0  0  0  0  0  0  0  0  0  0
    4.0584   -0.1546    0.2526 C   0  0  0  0  0  0  0  0  0  0  0  0
    3.2651    0.0433   -0.8486 O   0  0  0  0  0  0  0  0  0  0  0  0
   -2.8035   -0.3972   -0.6914 N   0  0  0  0  0  0  0  0  0  0  0  0
   -3.9671   -1.2521   -0.9218 C   0  0  0  0  0  0  0  0  0  0  0  0
   -3.9289   -2.1953    0.2723 C   0  0  0  0  0  0  0  0  0  0  0  0
   -3.1812   -1.4344    1.3634 C   0  0  0  0  0  0  0  0  0  0  0  0
   -2.8320   -0.0912    0.7413 C   0  0  0  0  0  0  0  0  0  0  0  0
   -4.7592    1.5618   -1.2509 H   0  0  0  0  0  0  0  0  0  0  0  0
   -3.6823    2.6754   -2.0937 H   0  0  0  0  0  0  0  0  0  0  0  0
   -3.4915    2.4387   -0.3627 H   0  0  0  0  0  0  0  0  0  0  0  0
   -2.9345    0.4355   -2.6116 H   0  0  0  0  0  0  0  0  0  0  0  0
   -0.7158   -0.6240   -1.4749 H   0  0  0  0  0  0  0  0  0  0  0  0
    1.2915    1.6035   -1.8808 H   0  0  0  0  0  0  0  0  0  0  0  0
    1.4036    0.0135   -2.6134 H   0  0  0  0  0  0  0  0  0  0  0  0
    1.5874   -1.0121   -0.2959 H   0  0  0  0  0  0  0  0  0  0  0  0
    2.0013    1.9185    0.5874 H   0  0  0  0  0  0  0  0  0  0  0  0
    0.5723    0.9488    0.9841 H   0  0  0  0  0  0  0  0  0  0  0  0
    4.0781   -0.2063    3.6535 H   0  0  0  0  0  0  0  0  0  0  0  0
    6.4419   -0.8410    3.2315 H   0  0  0  0  0  0  0  0  0  0  0  0
    7.2848   -1.0056    0.9010 H   0  0  0  0  0  0  0  0  0  0  0  0
    5.7555   -0.5736   -1.0085 H   0  0  0  0  0  0  0  0  0  0  0  0
   -3.8930   -1.8047   -1.8638 H   0  0  0  0  0  0  0  0  0  0  0  0
   -4.9076   -0.6885   -0.9172 H   0  0  0  0  0  0  0  0  0  0  0  0
   -4.9360   -2.4797    0.5917 H   0  0  0  0  0  0  0  0  0  0  0  0
   -3.3823   -3.1126    0.0232 H   0  0  0  0  0  0  0  0  0  0  0  0
   -2.2738   -1.9829    1.6473 H   0  0  0  0  0  0  0  0  0  0  0  0
   -3.7934   -1.3116    2.2638 H   0  0  0  0  0  0  0  0  0  0  0  0
   -1.8734    0.2830    1.1118 H   0  0  0  0  0  0  0  0  0  0  0  0
   -3.6152    0.6322    0.9975 H   0  0  0  0  0  0  0  0  0  0  0  0
  1  2  1  0
  2  3  1  0
  3  4  2  0
  3  5  1  0
  5  6  1  0
  6  7  1  0
  7  8  1  0
  8  9  1  0
  9 10  1  0
 10 11  2  0
 11 12  1  0
 12 13  2  0
 13 14  1  0
 14 15  2  0
 15 16  1  0
  2 17  1  0
 17 18  1  0
 18 19  1  0
 19 20  1  0
 20 21  1  0
 16  7  1  0
 21 17  1  0
 15 10  1  0
  1 22  1  0
  1 23  1  0
  1 24  1  0
  2 25  1  0
  5 26  1  0
  6 27  1  0
  6 28  1  0
  7 29  1  0
  8 30  1  0
  8 31  1  0
 11 32  1  0
 12 33  1  0
 13 34  1  0
 14 35  1  0
 18 36  1  0
 18 37  1  0
 19 38  1  0
 19 39  1  0
 20 40  1  0
 20 41  1  0
 21 42  1  0
 21 43  1  0
M  END
$$$$
