
     RDKit          3D

 39 42  0  0  0  0  0  0  0  0999 V2000
    5.8659    0.2883   -0.2704 C   0  0  0  0  0  0  0  0  0  0  0  0
    4.3668    0.2745   -0.2985 C   0  0  0  0  0  0  0  0  0  0  0  0
    3.6628    1.1596   -1.1097 C   0  0  0  0  0  0  0  0  0  0  0  0
    2.2670    1.1094   -1.1632 C   0  0  0  0  0  0  0  0  0  0  0  0
    1.5297    0.1654   -0.4232 C   0  0  0  0  0  0  0  0  0  0  0  0
    0.1120    0.1347   -0.5725 N   0  0  0  0  0  0  0  0  0  0  0  0
   -0.6254   -1.0228   -0.6977 C   0  0  0  0  0  0  0  0  0  0  0  0
   -0.2399   -2.1835   -0.7413 O   0  0  0  0  0  0  0  0  0  0  0  0
   -2.0794   -0.6681   -0.8531 C   0  0  0  0  0  0  0  0  0  0  0  0
   -2.9343   -0.9785    0.3905 C   0  0  0  0  0  0  0  0  0  0  0  0
   -4.4048   -0.6824    0.0385 C   0  0  0  0  0  0  0  0  0  0  0  0
   -4.4353    0.8553   -0.0434 C   0  0  0  0  0  0  0  0  0  0  0  0
   -2.9807    1.2466    0.2810 C   0  0  0  0  0  0  0  0  0  0  0  0
   -2.6202    0.1896    1.3282 C   0  0  0  0  0  0  0  0  0  0  0  0
   -2.1001    0.8551   -0.9226 C   0  0  0  0  0  0  0  0  0  0  0  0
   -0.6591    1.2625   -0.7659 C   0  0  0  0  0  0  0  0  0  0  0  0
   -0.3130    2.4369   -0.7775 O   0  0  0  0  0  0  0  0  0  0  0  0
    2.2384   -0.7068    0.4324 C   0  0  0  0  0  0  0  0  0  0  0  0
    1.5900   -1.6769    1.3850 C   0  0  0  0  0  0  0  0  0  0  0  0
    3.6495   -0.6584    0.4559 C   0  0  0  0  0  0  0  0  0  0  0  0
    6.2604   -0.4039   -1.0206 H   0  0  0  0  0  0  0  0  0  0  0  0
    6.2403   -0.0060    0.7157 H   0  0  0  0  0  0  0  0  0  0  0  0
    6.2526    1.2917   -0.4776 H   0  0  0  0  0  0  0  0  0  0  0  0
    4.1905    1.8921   -1.7166 H   0  0  0  0  0  0  0  0  0  0  0  0
    1.7695    1.8070   -1.8339 H   0  0  0  0  0  0  0  0  0  0  0  0
   -2.4677   -1.1287   -1.7677 H   0  0  0  0  0  0  0  0  0  0  0  0
   -2.7693   -1.9697    0.8181 H   0  0  0  0  0  0  0  0  0  0  0  0
   -4.7169   -1.1508   -0.9003 H   0  0  0  0  0  0  0  0  0  0  0  0
   -5.0743   -1.0303    0.8334 H   0  0  0  0  0  0  0  0  0  0  0  0
   -4.7570    1.2086   -1.0282 H   0  0  0  0  0  0  0  0  0  0  0  0
   -5.1249    1.2581    0.7070 H   0  0  0  0  0  0  0  0  0  0  0  0
   -2.8616    2.2806    0.6116 H   0  0  0  0  0  0  0  0  0  0  0  0
   -3.2694    0.2196    2.2104 H   0  0  0  0  0  0  0  0  0  0  0  0
   -1.5777    0.2273    1.6559 H   0  0  0  0  0  0  0  0  0  0  0  0
   -2.4828    1.2268   -1.8786 H   0  0  0  0  0  0  0  0  0  0  0  0
    2.1718   -1.7480    2.3117 H   0  0  0  0  0  0  0  0  0  0  0  0
    1.5396   -2.6752    0.9415 H   0  0  0  0  0  0  0  0  0  0  0  0
    0.5917   -1.3480    1.6870 H   0  0  0  0  0  0  0  0  0  0  0  0
    4.1954   -1.3517    1.0954 H   0  0  0  0  0  0  0  0  0  0  0  0
  1  2  1  0
  2  3  2  0
  3  4  1  0
  4  5  2  0
  5  6  1  0
  6  7  1  0
  7  8  2  0
  7  9  1  0
  9 10  1  0
 10 11  1  0
 11 12  1  0
 12 13  1  0
 13 14  1  0
 13 15  1  0
 15 16  1  0
 16 17  2  0
  5 18  1  0
 18 19  1  0
 18 20  2  0
 20  2  1  0
 16  6  1  0
 15  9  1  0
 14 10  1  0
  1 21  1  0
  1 22  1  0
  1 23  1  0
  3 24  1  0
  4 25  1  0
  9 26  1  0
 10 27  1  0
 11 28  1  0
 11 29  1  0
 12 30  1  0
 12 31  1  0
 13 32  1  0
 14 33  1  0
 14 34  1  0
 15 35  1  0
 19 36  1  0
 19 37  1  0
 19 38  1  0
 20 39  1  0
M  END
$$$$
