
     RDKit          3D

 59 62  0  0  0  0  0  0  0  0999 V2000
    8.9015    0.0474   -1.3203 C   0  0  0  0  0  0  0  0  0  0  0  0
    8.0900    0.7244   -0.3716 O   0  0  0  0  0  0  0  0  0  0  0  0
    6.8642    0.1776   -0.0804 C   0  0  0  0  0  0  0  0  0  0  0  0
    6.3076   -0.9155   -0.7520 C   0  0  0  0  0  0  0  0  0  0  0  0
    5.0515   -1.4058   -0.3871 C   0  0  0  0  0  0  0  0  0  0  0  0
    4.3341   -0.8150    0.6568 C   0  0  0  0  0  0  0  0  0  0  0  0
    2.9771   -1.3462    1.0448 C   0  0  0  0  0  0  0  0  0  0  0  0
    1.8476   -0.6685    0.2698 C   0  0  0  0  0  0  0  0  0  0  0  0
    0.5482   -1.1846    0.6687 N   0  0  0  0  0  0  0  0  0  0  0  0
   -0.5542   -1.0001   -0.1488 C   0  0  0  0  0  0  0  0  0  0  0  0
   -0.4757   -0.5355   -1.2833 O   0  0  0  0  0  0  0  0  0  0  0  0
   -1.8688   -1.5086    0.4625 C   0  0  0  0  0  0  0  0  0  0  0  0
   -3.0268   -0.7347    0.0082 N   0  0  0  0  0  0  0  0  0  0  0  0
   -3.1685    0.5205    0.6062 C   0  0  0  0  0  0  0  0  0  0  0  0
   -2.3870    0.8969    1.4880 O   0  0  0  0  0  0  0  0  0  0  0  0
   -4.2724    1.4320    0.0654 C   0  0  2  0  0  0  0  0  0  0  0  0
   -4.2857    2.8211    0.7216 C   0  0  0  0  0  0  0  0  0  0  0  0
   -5.7669    3.1127    0.9332 C   0  0  0  0  0  0  0  0  0  0  0  0
   -6.3340    1.7441    1.2644 C   0  0  0  0  0  0  0  0  0  0  0  0
   -5.5484    0.8451    0.4418 N   0  0  0  0  0  0  0  0  0  0  0  0
   -6.0750   -0.3061   -0.0829 C   0  0  0  0  0  0  0  0  0  0  0  0
   -7.2002   -0.7071    0.2046 O   0  0  0  0  0  0  0  0  0  0  0  0
   -5.2714   -1.0595   -1.0809 C   0  0  0  0  0  0  0  0  0  0  0  0
   -6.0320   -1.6645   -2.1052 C   0  0  0  0  0  0  0  0  0  0  0  0
   -5.4329   -2.4618   -3.0748 C   0  0  0  0  0  0  0  0  0  0  0  0
   -4.0648   -2.6738   -3.0267 C   0  0  0  0  0  0  0  0  0  0  0  0
   -3.3041   -2.0914   -2.0074 C   0  0  0  0  0  0  0  0  0  0  0  0
   -3.8791   -1.2701   -1.0136 C   0  0  0  0  0  0  0  0  0  0  0  0
    4.8846    0.2900    1.3227 C   0  0  0  0  0  0  0  0  0  0  0  0
    6.1410    0.7932    0.9601 C   0  0  0  0  0  0  0  0  0  0  0  0
    6.7512    1.8606    1.5734 O   0  0  0  0  0  0  0  0  0  0  0  0
    5.9745    2.6309    2.4799 C   0  0  0  0  0  0  0  0  0  0  0  0
    9.1117   -0.9793   -1.0036 H   0  0  0  0  0  0  0  0  0  0  0  0
    9.8562    0.5769   -1.3824 H   0  0  0  0  0  0  0  0  0  0  0  0
    8.4459    0.0681   -2.3145 H   0  0  0  0  0  0  0  0  0  0  0  0
    6.8240   -1.4070   -1.5691 H   0  0  0  0  0  0  0  0  0  0  0  0
    4.6390   -2.2561   -0.9262 H   0  0  0  0  0  0  0  0  0  0  0  0
    2.9462   -2.4303    0.8755 H   0  0  0  0  0  0  0  0  0  0  0  0
    2.8270   -1.2168    2.1244 H   0  0  0  0  0  0  0  0  0  0  0  0
    1.9766   -0.8157   -0.8094 H   0  0  0  0  0  0  0  0  0  0  0  0
    1.8379    0.4130    0.4532 H   0  0  0  0  0  0  0  0  0  0  0  0
    0.3591   -1.2128    1.6639 H   0  0  0  0  0  0  0  0  0  0  0  0
   -1.8117   -1.4405    1.5566 H   0  0  0  0  0  0  0  0  0  0  0  0
   -1.9842   -2.5726    0.2281 H   0  0  0  0  0  0  0  0  0  0  0  0
   -4.2023    1.5193   -1.0249 H   0  0  0  0  0  0  0  0  0  0  0  0
   -3.7781    2.8343    1.6922 H   0  0  0  0  0  0  0  0  0  0  0  0
   -3.8038    3.5730    0.0902 H   0  0  0  0  0  0  0  0  0  0  0  0
   -5.9471    3.8498    1.7194 H   0  0  0  0  0  0  0  0  0  0  0  0
   -6.2050    3.4902    0.0006 H   0  0  0  0  0  0  0  0  0  0  0  0
   -7.4045    1.6651    1.0577 H   0  0  0  0  0  0  0  0  0  0  0  0
   -6.1509    1.4808    2.3128 H   0  0  0  0  0  0  0  0  0  0  0  0
   -7.1116   -1.5171   -2.1393 H   0  0  0  0  0  0  0  0  0  0  0  0
   -6.0333   -2.9164   -3.8585 H   0  0  0  0  0  0  0  0  0  0  0  0
   -3.5797   -3.2875   -3.7827 H   0  0  0  0  0  0  0  0  0  0  0  0
   -2.2315   -2.2657   -2.0436 H   0  0  0  0  0  0  0  0  0  0  0  0
    4.3178    0.7395    2.1318 H   0  0  0  0  0  0  0  0  0  0  0  0
    6.5690    3.5008    2.7756 H   0  0  0  0  0  0  0  0  0  0  0  0
    5.7501    2.0579    3.3862 H   0  0  0  0  0  0  0  0  0  0  0  0
    5.0582    3.0014    2.0087 H   0  0  0  0  0  0  0  0  0  0  0  0
  1  2  1  0
  2  3  1  0
  3  4  2  0
  4  5  1  0
  5  6  2  0
  6  7  1  0
  7  8  1  0
  8  9  1  0
  9 10  1  0
 10 11  2  0
 10 12  1  0
 12 13  1  0
 13 14  1  0
 14 15  2  0
 14 16  1  0
 16 17  1  0
 17 18  1  0
 18 19  1  0
 19 20  1  0
 20 21  1  0
 21 22  2  0
 21 23  1  0
 23 24  2  0
 24 25  1  0
 25 26  2  0
 26 27  1  0
 27 28  2  0
  6 29  1  0
 29 30  2  0
 30 31  1  0
 31 32  1  0
 30  3  1  0
 28 13  1  0
 20 16  1  0
 28 23  1  0
  1 33  1  0
  1 34  1  0
  1 35  1  0
  4 36  1  0
  5 37  1  0
  7 38  1  0
  7 39  1  0
  8 40  1  0
  8 41  1  0
  9 42  1  0
 12 43  1  0
 12 44  1  0
 16 45  1  6
 17 46  1  0
 17 47  1  0
 18 48  1  0
 18 49  1  0
 19 50  1  0
 19 51  1  0
 24 52  1  0
 25 53  1  0
 26 54  1  0
 27 55  1  0
 29 56  1  0
 32 57  1  0
 32 58  1  0
 32 59  1  0
M  END
$$$$
