
     RDKit          3D

 31 32  0  0  0  0  0  0  0  0999 V2000
    3.3860    2.4573    1.4346 N   0  0  0  0  0  0  0  0  0  0  0  0
    2.1363    1.9378    1.2699 C   0  0  0  0  0  0  0  0  0  0  0  0
    1.1495    2.5729    1.6227 O   0  0  0  0  0  0  0  0  0  0  0  0
    2.0022    0.5691    0.7021 C   0  0  0  0  0  0  0  0  0  0  0  0
    0.8842   -0.1654    1.1367 C   0  0  0  0  0  0  0  0  0  0  0  0
    0.6558   -1.4579    0.6536 C   0  0  0  0  0  0  0  0  0  0  0  0
   -0.7525   -2.3841    1.2308 S   0  0  0  0  0  6  0  0  0  0  0  0
   -1.1668   -1.8239    2.4976 O   0  0  0  0  0  0  0  0  0  0  0  0
   -0.4165   -3.7876    1.1083 O   0  0  0  0  0  0  0  0  0  0  0  0
   -1.9207   -2.0806    0.0555 N   0  0  0  0  0  0  0  0  0  0  0  0
   -2.2337   -0.7426   -0.3104 C   0  0  0  0  0  0  0  0  0  0  0  0
   -2.7152    0.1717    0.6255 C   0  0  0  0  0  0  0  0  0  0  0  0
   -2.9705    1.4898    0.2445 C   0  0  0  0  0  0  0  0  0  0  0  0
   -2.7542    1.8906   -1.0732 C   0  0  0  0  0  0  0  0  0  0  0  0
   -2.2875    0.9730   -2.0134 C   0  0  0  0  0  0  0  0  0  0  0  0
   -2.0286   -0.3449   -1.6331 C   0  0  0  0  0  0  0  0  0  0  0  0
    1.5477   -2.0478   -0.2421 C   0  0  0  0  0  0  0  0  0  0  0  0
    2.6544   -1.3207   -0.6825 C   0  0  0  0  0  0  0  0  0  0  0  0
    2.8827   -0.0141   -0.2226 C   0  0  0  0  0  0  0  0  0  0  0  0
    4.2547    0.7997   -0.8901 Cl  0  0  0  0  0  0  0  0  0  0  0  0
    3.4538    3.4070    1.7769 H   0  0  0  0  0  0  0  0  0  0  0  0
    4.2206    2.0195    1.0675 H   0  0  0  0  0  0  0  0  0  0  0  0
    0.1917    0.2789    1.8524 H   0  0  0  0  0  0  0  0  0  0  0  0
   -1.9427   -2.7954   -0.6689 H   0  0  0  0  0  0  0  0  0  0  0  0
   -2.8987   -0.1263    1.6549 H   0  0  0  0  0  0  0  0  0  0  0  0
   -3.3342    2.2048    0.9786 H   0  0  0  0  0  0  0  0  0  0  0  0
   -2.9496    2.9197   -1.3653 H   0  0  0  0  0  0  0  0  0  0  0  0
   -2.1217    1.2873   -3.0407 H   0  0  0  0  0  0  0  0  0  0  0  0
   -1.6574   -1.0453   -2.3753 H   0  0  0  0  0  0  0  0  0  0  0  0
    1.3907   -3.0631   -0.6009 H   0  0  0  0  0  0  0  0  0  0  0  0
    3.3400   -1.7793   -1.3932 H   0  0  0  0  0  0  0  0  0  0  0  0
  1  2  1  0
  2  3  2  0
  2  4  1  0
  4  5  2  0
  5  6  1  0
  6  7  1  0
  7  8  2  0
  7  9  2  0
  7 10  1  0
 10 11  1  0
 11 12  2  0
 12 13  1  0
 13 14  2  0
 14 15  1  0
 15 16  2  0
  6 17  2  0
 17 18  1  0
 18 19  2  0
 19 20  1  0
 19  4  1  0
 16 11  1  0
  1 21  1  0
  1 22  1  0
  5 23  1  0
 10 24  1  0
 12 25  1  0
 13 26  1  0
 14 27  1  0
 15 28  1  0
 16 29  1  0
 17 30  1  0
 18 31  1  0
M  END
$$$$
