
     RDKit          3D

 28 29  0  0  0  0  0  0  0  0999 V2000
   -1.0653   -1.9577   -2.6875 O   0  0  0  0  0  0  0  0  0  0  0  0
   -0.3629   -1.7172   -1.4483 S   0  0  0  0  0  6  0  0  0  0  0  0
    0.3588   -2.7769   -0.7870 O   0  0  0  0  0  0  0  0  0  0  0  0
    0.7003   -0.4559   -1.7870 N   0  0  0  0  0  0  0  0  0  0  0  0
    1.5853    0.0066   -0.7644 C   0  0  0  0  0  0  0  0  0  0  0  0
    1.5919    1.3704   -0.4838 C   0  0  0  0  0  0  0  0  0  0  0  0
    2.4891    1.8759    0.4540 C   0  0  0  0  0  0  0  0  0  0  0  0
    3.3695    0.9955    1.0618 C   0  0  0  0  0  0  0  0  0  0  0  0
    3.4132   -0.3266    0.7900 N   0  0  0  0  0  0  0  0  0  0  0  0
    2.5286   -0.7926   -0.1259 C   0  0  0  0  0  0  0  0  0  0  0  0
   -1.4245   -1.0279   -0.3799 N   0  0  0  0  0  0  0  0  0  0  0  0
   -2.2738    0.0995   -0.7951 C   0  0  0  0  0  0  0  0  0  0  0  0
   -2.3843    0.9692    0.4527 C   0  0  0  0  0  0  0  0  0  0  0  0
   -2.2234   -0.0265    1.5876 C   0  0  0  0  0  0  0  0  0  0  0  0
   -1.1421   -0.9611    1.0597 C   0  0  0  0  0  0  0  0  0  0  0  0
    1.2039   -0.7138   -2.6376 H   0  0  0  0  0  0  0  0  0  0  0  0
    0.9002    2.0387   -0.9884 H   0  0  0  0  0  0  0  0  0  0  0  0
    2.5067    2.9321    0.6987 H   0  0  0  0  0  0  0  0  0  0  0  0
    4.0895    1.3409    1.7988 H   0  0  0  0  0  0  0  0  0  0  0  0
    2.6184   -1.8548   -0.3333 H   0  0  0  0  0  0  0  0  0  0  0  0
   -1.8554    0.6698   -1.6288 H   0  0  0  0  0  0  0  0  0  0  0  0
   -3.2555   -0.2877   -1.0875 H   0  0  0  0  0  0  0  0  0  0  0  0
   -1.5655    1.6982    0.4765 H   0  0  0  0  0  0  0  0  0  0  0  0
   -3.3294    1.5173    0.4975 H   0  0  0  0  0  0  0  0  0  0  0  0
   -3.1598   -0.5765    1.7408 H   0  0  0  0  0  0  0  0  0  0  0  0
   -1.9432    0.4469    2.5326 H   0  0  0  0  0  0  0  0  0  0  0  0
   -1.2146   -1.9479    1.5246 H   0  0  0  0  0  0  0  0  0  0  0  0
   -0.1558   -0.5381    1.2589 H   0  0  0  0  0  0  0  0  0  0  0  0
  1  2  2  0
  2  3  2  0
  2  4  1  0
  4  5  1  0
  5  6  2  0
  6  7  1  0
  7  8  2  0
  8  9  1  0
  9 10  2  0
  2 11  1  0
 11 12  1  0
 12 13  1  0
 13 14  1  0
 14 15  1  0
 10  5  1  0
 15 11  1  0
  4 16  1  0
  6 17  1  0
  7 18  1  0
  8 19  1  0
 10 20  1  0
 12 21  1  0
 12 22  1  0
 13 23  1  0
 13 24  1  0
 14 25  1  0
 14 26  1  0
 15 27  1  0
 15 28  1  0
M  END
$$$$
