
     RDKit          3D

 46 47  0  0  0  0  0  0  0  0999 V2000
    4.4729   -1.8551   -0.7781 C   0  0  0  0  0  0  0  0  0  0  0  0
    2.9752   -1.6311   -0.9312 C   0  0  0  0  0  0  0  0  0  0  0  0
    2.6309   -0.4996   -1.8998 C   0  0  0  0  0  0  0  0  0  0  0  0
    3.1117    0.7959   -1.4830 N   0  0  0  0  0  0  0  0  0  0  0  0
    4.1753    1.3480   -2.0895 N   0  0  0  0  0  0  0  0  0  0  0  0
    4.3385    2.5202   -1.4955 N   0  0  0  0  0  0  0  0  0  0  0  0
    3.3971    2.7091   -0.5138 N   0  0  0  0  0  0  0  0  0  0  0  0
    2.6347    1.6370   -0.5074 C   0  0  0  0  0  0  0  0  0  0  0  0
    1.5573    1.3411    0.2916 N   0  0  0  0  0  0  0  0  0  0  0  0
    1.0913    2.2127    1.2571 C   0  0  0  0  0  0  0  0  0  0  0  0
    1.5423    3.3196    1.5329 O   0  0  0  0  0  0  0  0  0  0  0  0
   -0.1066    1.6433    2.0241 C   0  0  0  0  0  0  0  0  0  0  0  0
   -0.5839    0.4074    1.4951 O   0  0  0  0  0  0  0  0  0  0  0  0
   -1.6293    0.4432    0.6090 C   0  0  0  0  0  0  0  0  0  0  0  0
   -1.9346    1.5618   -0.1773 C   0  0  0  0  0  0  0  0  0  0  0  0
   -3.0010    1.5350   -1.0879 C   0  0  0  0  0  0  0  0  0  0  0  0
   -3.3116    2.7503   -1.9101 C   0  0  0  0  0  0  0  0  0  0  0  0
   -3.7558    0.3685   -1.2152 C   0  0  0  0  0  0  0  0  0  0  0  0
   -3.4453   -0.7567   -0.4500 C   0  0  0  0  0  0  0  0  0  0  0  0
   -2.3784   -0.7426    0.4693 C   0  0  0  0  0  0  0  0  0  0  0  0
   -2.1110   -2.0111    1.2728 C   0  0  0  0  0  0  0  0  0  0  0  0
   -0.7498   -2.6325    0.9441 C   0  0  0  0  0  0  0  0  0  0  0  0
   -2.2867   -1.8001    2.7785 C   0  0  0  0  0  0  0  0  0  0  0  0
    4.6582   -2.7362   -0.1572 H   0  0  0  0  0  0  0  0  0  0  0  0
    4.9570   -0.9995   -0.2970 H   0  0  0  0  0  0  0  0  0  0  0  0
    4.9498   -2.0216   -1.7490 H   0  0  0  0  0  0  0  0  0  0  0  0
    2.5174   -2.5571   -1.3013 H   0  0  0  0  0  0  0  0  0  0  0  0
    2.5400   -1.4348    0.0556 H   0  0  0  0  0  0  0  0  0  0  0  0
    3.0414   -0.7119   -2.8956 H   0  0  0  0  0  0  0  0  0  0  0  0
    1.5428   -0.4210   -2.0121 H   0  0  0  0  0  0  0  0  0  0  0  0
    1.0500    0.4733    0.1703 H   0  0  0  0  0  0  0  0  0  0  0  0
    0.2455    1.4340    3.0396 H   0  0  0  0  0  0  0  0  0  0  0  0
   -0.8972    2.3959    2.1074 H   0  0  0  0  0  0  0  0  0  0  0  0
   -1.3504    2.4773   -0.1135 H   0  0  0  0  0  0  0  0  0  0  0  0
   -4.1792    2.5875   -2.5589 H   0  0  0  0  0  0  0  0  0  0  0  0
   -3.5347    3.5989   -1.2573 H   0  0  0  0  0  0  0  0  0  0  0  0
   -2.4567    3.0021   -2.5462 H   0  0  0  0  0  0  0  0  0  0  0  0
   -4.5921    0.3233   -1.9106 H   0  0  0  0  0  0  0  0  0  0  0  0
   -4.0549   -1.6510   -0.5744 H   0  0  0  0  0  0  0  0  0  0  0  0
   -2.8627   -2.7577    0.9838 H   0  0  0  0  0  0  0  0  0  0  0  0
   -0.6605   -2.8298   -0.1307 H   0  0  0  0  0  0  0  0  0  0  0  0
    0.0874   -1.9914    1.2339 H   0  0  0  0  0  0  0  0  0  0  0  0
   -0.6259   -3.5843    1.4717 H   0  0  0  0  0  0  0  0  0  0  0  0
   -1.5133   -1.1541    3.2037 H   0  0  0  0  0  0  0  0  0  0  0  0
   -3.2607   -1.3485    2.9983 H   0  0  0  0  0  0  0  0  0  0  0  0
   -2.2342   -2.7579    3.3083 H   0  0  0  0  0  0  0  0  0  0  0  0
  1  2  1  0
  2  3  1  0
  3  4  1  0
  4  5  1  0
  5  6  2  0
  6  7  1  0
  7  8  2  0
  8  9  1  0
  9 10  1  0
 10 11  2  0
 10 12  1  0
 12 13  1  0
 13 14  1  0
 14 15  2  0
 15 16  1  0
 16 17  1  0
 16 18  2  0
 18 19  1  0
 19 20  2  0
 20 21  1  0
 21 22  1  0
 21 23  1  0
  8  4  1  0
 20 14  1  0
  1 24  1  0
  1 25  1  0
  1 26  1  0
  2 27  1  0
  2 28  1  0
  3 29  1  0
  3 30  1  0
  9 31  1  0
 12 32  1  0
 12 33  1  0
 15 34  1  0
 17 35  1  0
 17 36  1  0
 17 37  1  0
 18 38  1  0
 19 39  1  0
 21 40  1  0
 22 41  1  0
 22 42  1  0
 22 43  1  0
 23 44  1  0
 23 45  1  0
 23 46  1  0
M  END
$$$$
