
     RDKit          3D

 38 39  0  0  0  0  0  0  0  0999 V2000
    4.9255   -1.3764   -0.8302 O   0  0  0  0  0  0  0  0  0  0  0  0
    4.3046   -0.6954   -1.9114 C   0  0  0  0  0  0  0  0  0  0  0  0
    2.8011   -0.9445   -1.9237 C   0  0  0  0  0  0  0  0  0  0  0  0
    2.1251   -0.4050   -0.6602 C   0  0  0  0  0  0  0  0  0  0  0  0
    0.6834   -0.6500   -0.7433 N   0  0  0  0  0  0  0  0  0  0  0  0
   -0.0380   -0.2330    0.4772 C   0  0  0  0  0  0  0  0  0  0  0  0
   -0.1320    1.2919    0.5597 C   0  0  0  0  0  0  0  0  0  0  0  0
    0.6381    1.9947    1.5015 C   0  0  0  0  0  0  0  0  0  0  0  0
    0.5719    3.3870    1.5783 C   0  0  0  0  0  0  0  0  0  0  0  0
   -0.2625    4.0951    0.7160 C   0  0  0  0  0  0  0  0  0  0  0  0
   -1.0314    3.4136   -0.2250 C   0  0  0  0  0  0  0  0  0  0  0  0
   -0.9661    2.0216   -0.3055 C   0  0  0  0  0  0  0  0  0  0  0  0
   -1.4101   -0.9124    0.6094 C   0  0  0  0  0  0  0  0  0  0  0  0
   -1.8994   -1.8326   -0.3355 C   0  0  0  0  0  0  0  0  0  0  0  0
   -3.1478   -2.4420   -0.1715 C   0  0  0  0  0  0  0  0  0  0  0  0
   -3.9165   -2.1407    0.9461 C   0  0  0  0  0  0  0  0  0  0  0  0
   -5.1382   -2.7124    1.1443 O   0  0  0  0  0  0  0  0  0  0  0  0
   -3.4563   -1.2464    1.9018 C   0  0  0  0  0  0  0  0  0  0  0  0
   -2.2089   -0.6401    1.7380 C   0  0  0  0  0  0  0  0  0  0  0  0
    4.7514   -2.3270   -0.9444 H   0  0  0  0  0  0  0  0  0  0  0  0
    4.7582   -1.0470   -2.8436 H   0  0  0  0  0  0  0  0  0  0  0  0
    4.5226    0.3727   -1.8125 H   0  0  0  0  0  0  0  0  0  0  0  0
    2.6133   -2.0230   -1.9992 H   0  0  0  0  0  0  0  0  0  0  0  0
    2.3698   -0.4689   -2.8129 H   0  0  0  0  0  0  0  0  0  0  0  0
    2.3362    0.6661   -0.5698 H   0  0  0  0  0  0  0  0  0  0  0  0
    2.5392   -0.9110    0.2194 H   0  0  0  0  0  0  0  0  0  0  0  0
    0.2936   -0.1351   -1.5305 H   0  0  0  0  0  0  0  0  0  0  0  0
    0.5280   -0.6053    1.3434 H   0  0  0  0  0  0  0  0  0  0  0  0
    1.2990    1.4592    2.1799 H   0  0  0  0  0  0  0  0  0  0  0  0
    1.1725    3.9193    2.3114 H   0  0  0  0  0  0  0  0  0  0  0  0
   -0.3149    5.1789    0.7783 H   0  0  0  0  0  0  0  0  0  0  0  0
   -1.6858    3.9654   -0.8948 H   0  0  0  0  0  0  0  0  0  0  0  0
   -1.5800    1.5049   -1.0404 H   0  0  0  0  0  0  0  0  0  0  0  0
   -1.3072   -2.0945   -1.2093 H   0  0  0  0  0  0  0  0  0  0  0  0
   -3.4940   -3.1467   -0.9206 H   0  0  0  0  0  0  0  0  0  0  0  0
   -5.3177   -3.3167    0.4059 H   0  0  0  0  0  0  0  0  0  0  0  0
   -4.0635   -1.0209    2.7737 H   0  0  0  0  0  0  0  0  0  0  0  0
   -1.8633    0.0563    2.4998 H   0  0  0  0  0  0  0  0  0  0  0  0
  1  2  1  0
  2  3  1  0
  3  4  1  0
  4  5  1  0
  5  6  1  0
  6  7  1  0
  7  8  2  0
  8  9  1  0
  9 10  2  0
 10 11  1  0
 11 12  2  0
  6 13  1  0
 13 14  2  0
 14 15  1  0
 15 16  2  0
 16 17  1  0
 16 18  1  0
 18 19  2  0
 12  7  1  0
 19 13  1  0
  1 20  1  0
  2 21  1  0
  2 22  1  0
  3 23  1  0
  3 24  1  0
  4 25  1  0
  4 26  1  0
  5 27  1  0
  6 28  1  0
  8 29  1  0
  9 30  1  0
 10 31  1  0
 11 32  1  0
 12 33  1  0
 14 34  1  0
 15 35  1  0
 17 36  1  0
 18 37  1  0
 19 38  1  0
M  END
$$$$
