
     RDKit          3D

 49 52  0  0  0  0  0  0  0  0999 V2000
    8.2179   -0.7095    1.1937 C   0  0  0  0  0  0  0  0  0  0  0  0
    7.1579    0.1754    0.8574 O   0  0  0  0  0  0  0  0  0  0  0  0
    5.8857   -0.3390    0.8260 C   0  0  0  0  0  0  0  0  0  0  0  0
    5.5396   -1.6117    1.2866 C   0  0  0  0  0  0  0  0  0  0  0  0
    4.2154   -2.0590    1.2125 C   0  0  0  0  0  0  0  0  0  0  0  0
    3.2163   -1.2364    0.6797 C   0  0  0  0  0  0  0  0  0  0  0  0
    1.7959   -1.6655    0.5560 C   0  0  0  0  0  0  0  0  0  0  0  0
    0.8581   -0.8970    0.0580 N   0  0  0  0  0  0  0  0  0  0  0  0
   -0.2880   -1.6303    0.0974 N   0  0  0  0  0  0  0  0  0  0  0  0
   -1.5805   -1.4034   -0.2906 C   0  0  0  0  0  0  0  0  0  0  0  0
   -2.0239   -0.1175   -0.9098 C   0  0  0  0  0  0  0  0  0  0  0  0
   -3.3602    0.3306   -0.4472 N   0  0  0  0  0  0  0  0  0  0  0  0
   -4.4247   -0.4405   -1.1202 C   0  0  0  0  0  0  0  0  0  0  0  0
   -5.6361   -0.7010   -0.2243 C   0  0  0  0  0  0  0  0  0  0  0  0
   -6.2146    0.4938    0.5299 C   0  0  0  0  0  0  0  0  0  0  0  0
   -6.0604    1.8376   -0.1735 C   0  0  0  0  0  0  0  0  0  0  0  0
   -4.6730    2.4445    0.0307 C   0  0  0  0  0  0  0  0  0  0  0  0
   -3.5245    1.7691   -0.7260 C   0  0  0  0  0  0  0  0  0  0  0  0
   -2.2779   -2.5142   -0.0585 N   0  0  0  0  0  0  0  0  0  0  0  0
   -1.4321   -3.4670    0.5029 N   0  0  0  0  0  0  0  0  0  0  0  0
   -0.2680   -2.8923    0.5779 C   0  0  0  0  0  0  0  0  0  0  0  0
    1.3051   -3.3053    1.0848 S   0  0  0  0  0  0  0  0  0  0  0  0
    3.5615    0.0488    0.2304 C   0  0  0  0  0  0  0  0  0  0  0  0
    4.8859    0.5025    0.2994 C   0  0  0  0  0  0  0  0  0  0  0  0
    5.3065    1.7382   -0.1267 O   0  0  0  0  0  0  0  0  0  0  0  0
    4.3348    2.6241   -0.6654 C   0  0  0  0  0  0  0  0  0  0  0  0
    8.1504   -1.0221    2.2406 H   0  0  0  0  0  0  0  0  0  0  0  0
    9.1585   -0.1659    1.0680 H   0  0  0  0  0  0  0  0  0  0  0  0
    8.2420   -1.5753    0.5224 H   0  0  0  0  0  0  0  0  0  0  0  0
    6.2784   -2.2827    1.7145 H   0  0  0  0  0  0  0  0  0  0  0  0
    4.0019   -3.0585    1.5816 H   0  0  0  0  0  0  0  0  0  0  0  0
   -1.2786    0.6438   -0.6401 H   0  0  0  0  0  0  0  0  0  0  0  0
   -1.9956   -0.2041   -2.0048 H   0  0  0  0  0  0  0  0  0  0  0  0
   -4.7424    0.0461   -2.0528 H   0  0  0  0  0  0  0  0  0  0  0  0
   -4.0677   -1.4260   -1.4440 H   0  0  0  0  0  0  0  0  0  0  0  0
   -5.3894   -1.4833    0.5060 H   0  0  0  0  0  0  0  0  0  0  0  0
   -6.4275   -1.1256   -0.8584 H   0  0  0  0  0  0  0  0  0  0  0  0
   -7.2822    0.3023    0.6996 H   0  0  0  0  0  0  0  0  0  0  0  0
   -5.7602    0.5474    1.5285 H   0  0  0  0  0  0  0  0  0  0  0  0
   -6.7919    2.5305    0.2634 H   0  0  0  0  0  0  0  0  0  0  0  0
   -6.3050    1.7599   -1.2397 H   0  0  0  0  0  0  0  0  0  0  0  0
   -4.7101    3.4941   -0.2888 H   0  0  0  0  0  0  0  0  0  0  0  0
   -4.4374    2.4646    1.1034 H   0  0  0  0  0  0  0  0  0  0  0  0
   -2.6168    2.3051   -0.4156 H   0  0  0  0  0  0  0  0  0  0  0  0
   -3.6265    1.9524   -1.8045 H   0  0  0  0  0  0  0  0  0  0  0  0
    2.7814    0.6853   -0.1769 H   0  0  0  0  0  0  0  0  0  0  0  0
    3.8742    2.2050   -1.5661 H   0  0  0  0  0  0  0  0  0  0  0  0
    4.8486    3.5465   -0.9567 H   0  0  0  0  0  0  0  0  0  0  0  0
    3.5791    2.8854    0.0839 H   0  0  0  0  0  0  0  0  0  0  0  0
  1  2  1  0
  2  3  1  0
  3  4  2  0
  4  5  1  0
  5  6  2  0
  6  7  1  0
  7  8  2  0
  8  9  1  0
  9 10  1  0
 10 11  1  0
 11 12  1  0
 12 13  1  0
 13 14  1  0
 14 15  1  0
 15 16  1  0
 16 17  1  0
 17 18  1  0
 10 19  2  0
 19 20  1  0
 20 21  2  0
 21 22  1  0
  6 23  1  0
 23 24  2  0
 24 25  1  0
 25 26  1  0
 24  3  1  0
 22  7  1  0
 21  9  1  0
 18 12  1  0
  1 27  1  0
  1 28  1  0
  1 29  1  0
  4 30  1  0
  5 31  1  0
 11 32  1  0
 11 33  1  0
 13 34  1  0
 13 35  1  0
 14 36  1  0
 14 37  1  0
 15 38  1  0
 15 39  1  0
 16 40  1  0
 16 41  1  0
 17 42  1  0
 17 43  1  0
 18 44  1  0
 18 45  1  0
 23 46  1  0
 26 47  1  0
 26 48  1  0
 26 49  1  0
M  END
$$$$
