
     RDKit          3D

 51 54  0  0  0  0  0  0  0  0999 V2000
   -5.2677    1.2071   -3.1251 C   0  0  0  0  0  0  0  0  0  0  0  0
   -4.7659    0.6901   -1.8138 C   0  0  0  0  0  0  0  0  0  0  0  0
   -3.5023    0.9992   -1.4728 N   0  0  0  0  0  0  0  0  0  0  0  0
   -3.0161    0.5446   -0.3025 C   0  0  0  0  0  0  0  0  0  0  0  0
   -1.7133    0.8770    0.0427 N   0  0  0  0  0  0  0  0  0  0  0  0
   -0.8884   -0.0390    0.8430 C   0  0  0  0  0  0  0  0  0  0  0  0
    0.5230   -0.2273    0.2492 C   0  0  0  0  0  0  0  0  0  0  0  0
    1.2168    1.0333   -0.0428 N   0  0  0  0  0  0  0  0  0  0  0  0
    2.5919    1.2312    0.0012 C   0  0  0  0  0  0  0  0  0  0  0  0
    3.0687    2.3621   -0.0025 O   0  0  0  0  0  0  0  0  0  0  0  0
    3.3269    0.0665    0.0279 N   0  0  0  0  0  0  0  0  0  0  0  0
    4.7251   -0.0658    0.1713 C   0  0  0  0  0  0  0  0  0  0  0  0
    5.2670   -1.3453   -0.0208 C   0  0  0  0  0  0  0  0  0  0  0  0
    6.6433   -1.5685    0.1010 C   0  0  0  0  0  0  0  0  0  0  0  0
    7.5012   -0.5146    0.4292 C   0  0  0  0  0  0  0  0  0  0  0  0
    8.9811   -0.7313    0.5184 C   0  0  0  0  0  0  0  0  0  0  0  0
    6.9527    0.7562    0.6129 C   0  0  0  0  0  0  0  0  0  0  0  0
    7.7579    1.7910    0.9035 F   0  0  0  0  0  0  0  0  0  0  0  0
    5.5815    0.9850    0.4983 C   0  0  0  0  0  0  0  0  0  0  0  0
    0.3589    2.2032   -0.2596 C   0  0  0  0  0  0  0  0  0  0  0  0
   -1.0120    1.8236   -0.8405 C   0  0  0  0  0  0  0  0  0  0  0  0
   -3.8190   -0.2010    0.5379 C   0  0  0  0  0  0  0  0  0  0  0  0
   -5.1070   -0.4765    0.1138 C   0  0  0  0  0  0  0  0  0  0  0  0
   -5.9572   -1.2556    0.9542 N   0  0  0  0  0  0  0  0  0  0  0  0
   -7.2664   -1.6071    0.6905 C   0  0  0  0  0  0  0  0  0  0  0  0
   -7.7066   -2.3583    1.7530 C   0  0  0  0  0  0  0  0  0  0  0  0
   -6.6038   -2.4199    2.6191 C   0  0  0  0  0  0  0  0  0  0  0  0
   -5.5396   -1.7659    2.1480 N   0  0  0  0  0  0  0  0  0  0  0  0
   -5.6015   -0.0419   -1.0658 N   0  0  0  0  0  0  0  0  0  0  0  0
   -6.2873    0.8600   -3.3208 H   0  0  0  0  0  0  0  0  0  0  0  0
   -4.6219    0.8574   -3.9362 H   0  0  0  0  0  0  0  0  0  0  0  0
   -5.2685    2.3012   -3.1184 H   0  0  0  0  0  0  0  0  0  0  0  0
   -1.3377   -1.0347    0.9317 H   0  0  0  0  0  0  0  0  0  0  0  0
   -0.8038    0.3757    1.8544 H   0  0  0  0  0  0  0  0  0  0  0  0
    0.4534   -0.7705   -0.7011 H   0  0  0  0  0  0  0  0  0  0  0  0
    1.1214   -0.8313    0.9394 H   0  0  0  0  0  0  0  0  0  0  0  0
    2.8430   -0.7539   -0.2948 H   0  0  0  0  0  0  0  0  0  0  0  0
    4.6269   -2.1884   -0.2722 H   0  0  0  0  0  0  0  0  0  0  0  0
    7.0391   -2.5683   -0.0663 H   0  0  0  0  0  0  0  0  0  0  0  0
    9.4307   -0.6528   -0.4768 H   0  0  0  0  0  0  0  0  0  0  0  0
    9.2023   -1.7222    0.9296 H   0  0  0  0  0  0  0  0  0  0  0  0
    9.4519    0.0045    1.1795 H   0  0  0  0  0  0  0  0  0  0  0  0
    5.2251    1.9954    0.6663 H   0  0  0  0  0  0  0  0  0  0  0  0
    0.8615    2.9108   -0.9287 H   0  0  0  0  0  0  0  0  0  0  0  0
    0.2363    2.6944    0.7139 H   0  0  0  0  0  0  0  0  0  0  0  0
   -0.8692    1.3721   -1.8311 H   0  0  0  0  0  0  0  0  0  0  0  0
   -1.6009    2.7413   -0.9599 H   0  0  0  0  0  0  0  0  0  0  0  0
   -3.4667   -0.5356    1.5049 H   0  0  0  0  0  0  0  0  0  0  0  0
   -7.7509   -1.2876   -0.2219 H   0  0  0  0  0  0  0  0  0  0  0  0
   -8.6848   -2.7992    1.8805 H   0  0  0  0  0  0  0  0  0  0  0  0
   -6.5294   -2.9202    3.5767 H   0  0  0  0  0  0  0  0  0  0  0  0
  1  2  1  0
  2  3  2  0
  3  4  1  0
  4  5  1  0
  5  6  1  0
  6  7  1  0
  7  8  1  0
  8  9  1  0
  9 10  2  0
  9 11  1  0
 11 12  1  0
 12 13  2  0
 13 14  1  0
 14 15  2  0
 15 16  1  0
 15 17  1  0
 17 18  1  0
 17 19  2  0
  8 20  1  0
 20 21  1  0
  4 22  2  0
 22 23  1  0
 23 24  1  0
 24 25  1  0
 25 26  2  0
 26 27  1  0
 27 28  2  0
 23 29  2  0
 29  2  1  0
 21  5  1  0
 28 24  1  0
 19 12  1  0
  1 30  1  0
  1 31  1  0
  1 32  1  0
  6 33  1  0
  6 34  1  0
  7 35  1  0
  7 36  1  0
 11 37  1  0
 13 38  1  0
 14 39  1  0
 16 40  1  0
 16 41  1  0
 16 42  1  0
 19 43  1  0
 20 44  1  0
 20 45  1  0
 21 46  1  0
 21 47  1  0
 22 48  1  0
 25 49  1  0
 26 50  1  0
 27 51  1  0
M  END
$$$$
