
     RDKit          3D

 44 45  0  0  0  0  0  0  0  0999 V2000
    7.2657   -0.7402    0.0097 C   0  0  0  0  0  0  0  0  0  0  0  0
    6.1846   -1.3509   -0.8710 C   0  0  0  0  0  0  0  0  0  0  0  0
    5.3336   -0.3518   -1.4273 O   0  0  0  0  0  0  0  0  0  0  0  0
    4.2898    0.1248   -0.6860 C   0  0  0  0  0  0  0  0  0  0  0  0
    3.5368    1.1169   -1.3235 C   0  0  0  0  0  0  0  0  0  0  0  0
    2.4396    1.6962   -0.6866 C   0  0  0  0  0  0  0  0  0  0  0  0
    2.0761    1.3013    0.6056 C   0  0  0  0  0  0  0  0  0  0  0  0
    0.8654    1.9062    1.2701 C   0  0  0  0  0  0  0  0  0  0  0  0
   -0.3353    1.2411    0.8223 N   0  0  0  0  0  0  0  0  0  0  0  0
   -1.5413    1.9040    0.7345 C   0  0  0  0  0  0  0  0  0  0  0  0
   -1.6958    3.0938    0.9993 O   0  0  0  0  0  0  0  0  0  0  0  0
   -2.6946    1.1014    0.2472 C   0  0  0  0  0  0  0  0  0  0  0  0
   -3.6631    1.7401   -0.5363 C   0  0  0  0  0  0  0  0  0  0  0  0
   -4.7579    1.0238   -1.0268 C   0  0  0  0  0  0  0  0  0  0  0  0
   -4.8953   -0.3362   -0.7283 C   0  0  0  0  0  0  0  0  0  0  0  0
   -5.9334   -1.1236   -1.1635 O   0  0  0  0  0  0  0  0  0  0  0  0
   -6.7902   -0.5877   -2.1633 C   0  0  0  0  0  0  0  0  0  0  0  0
   -3.9359   -0.9757    0.0896 C   0  0  0  0  0  0  0  0  0  0  0  0
   -4.1629   -2.3063    0.3482 O   0  0  0  0  0  0  0  0  0  0  0  0
   -3.2528   -2.9919    1.2033 C   0  0  0  0  0  0  0  0  0  0  0  0
   -2.8382   -0.2534    0.5744 C   0  0  0  0  0  0  0  0  0  0  0  0
    2.8237    0.2990    1.2382 C   0  0  0  0  0  0  0  0  0  0  0  0
    3.9240   -0.2853    0.5964 C   0  0  0  0  0  0  0  0  0  0  0  0
    7.9882   -1.5040    0.3257 H   0  0  0  0  0  0  0  0  0  0  0  0
    7.8023    0.0501   -0.5256 H   0  0  0  0  0  0  0  0  0  0  0  0
    6.8376   -0.2825    0.9073 H   0  0  0  0  0  0  0  0  0  0  0  0
    6.6730   -1.8393   -1.7220 H   0  0  0  0  0  0  0  0  0  0  0  0
    5.6223   -2.1402   -0.3505 H   0  0  0  0  0  0  0  0  0  0  0  0
    3.8051    1.4325   -2.3309 H   0  0  0  0  0  0  0  0  0  0  0  0
    1.8665    2.4607   -1.2083 H   0  0  0  0  0  0  0  0  0  0  0  0
    0.9204    1.7845    2.3615 H   0  0  0  0  0  0  0  0  0  0  0  0
    0.8127    2.9845    1.0694 H   0  0  0  0  0  0  0  0  0  0  0  0
   -0.2456    0.2895    0.4969 H   0  0  0  0  0  0  0  0  0  0  0  0
   -3.5624    2.7990   -0.7703 H   0  0  0  0  0  0  0  0  0  0  0  0
   -5.4875    1.5566   -1.6303 H   0  0  0  0  0  0  0  0  0  0  0  0
   -7.4828   -1.3801   -2.4692 H   0  0  0  0  0  0  0  0  0  0  0  0
   -6.2257   -0.2784   -3.0495 H   0  0  0  0  0  0  0  0  0  0  0  0
   -7.3867    0.2398   -1.7684 H   0  0  0  0  0  0  0  0  0  0  0  0
   -2.2425   -3.0112    0.7730 H   0  0  0  0  0  0  0  0  0  0  0  0
   -3.5993   -4.0291    1.2963 H   0  0  0  0  0  0  0  0  0  0  0  0
   -3.2467   -2.5545    2.2067 H   0  0  0  0  0  0  0  0  0  0  0  0
   -2.1062   -0.7220    1.2246 H   0  0  0  0  0  0  0  0  0  0  0  0
    2.5534   -0.0382    2.2385 H   0  0  0  0  0  0  0  0  0  0  0  0
    4.4613   -1.0632    1.1261 H   0  0  0  0  0  0  0  0  0  0  0  0
  1  2  1  0
  2  3  1  0
  3  4  1  0
  4  5  2  0
  5  6  1  0
  6  7  2  0
  7  8  1  0
  8  9  1  0
  9 10  1  0
 10 11  2  0
 10 12  1  0
 12 13  2  0
 13 14  1  0
 14 15  2  0
 15 16  1  0
 16 17  1  0
 15 18  1  0
 18 19  1  0
 19 20  1  0
 18 21  2  0
  7 22  1  0
 22 23  2  0
 23  4  1  0
 21 12  1  0
  1 24  1  0
  1 25  1  0
  1 26  1  0
  2 27  1  0
  2 28  1  0
  5 29  1  0
  6 30  1  0
  8 31  1  0
  8 32  1  0
  9 33  1  0
 13 34  1  0
 14 35  1  0
 17 36  1  0
 17 37  1  0
 17 38  1  0
 20 39  1  0
 20 40  1  0
 20 41  1  0
 21 42  1  0
 22 43  1  0
 23 44  1  0
M  END
$$$$
