
     RDKit          3D

 41 44  0  0  0  0  0  0  0  0999 V2000
   -2.4250   -0.7372    1.9819 O   0  0  0  0  0  0  0  0  0  0  0  0
   -2.2166   -0.4860    0.8021 C   0  0  0  0  0  0  0  0  0  0  0  0
   -3.0927    0.0859   -0.1007 N   0  0  0  0  0  0  0  0  0  0  0  0
   -4.4407    0.4400    0.1239 C   0  0  0  0  0  0  0  0  0  0  0  0
   -5.1289    0.1835    1.3120 C   0  0  0  0  0  0  0  0  0  0  0  0
   -6.4690    0.5625    1.4532 C   0  0  0  0  0  0  0  0  0  0  0  0
   -7.1349    1.1990    0.4078 C   0  0  0  0  0  0  0  0  0  0  0  0
   -6.4504    1.4502   -0.7745 C   0  0  0  0  0  0  0  0  0  0  0  0
   -7.0564    2.0687   -1.8286 O   0  0  0  0  0  0  0  0  0  0  0  0
   -5.1170    1.0770   -0.9236 C   0  0  0  0  0  0  0  0  0  0  0  0
   -0.8639   -0.7887    0.2564 C   0  0  0  0  0  0  0  0  0  0  0  0
   -0.6983   -1.2881   -1.0601 C   0  0  0  0  0  0  0  0  0  0  0  0
    0.5764   -1.5847   -1.5583 C   0  0  0  0  0  0  0  0  0  0  0  0
    1.6497   -1.3771   -0.7134 C   0  0  0  0  0  0  0  0  0  0  0  0
    1.4888   -0.9024    0.5762 C   0  0  0  0  0  0  0  0  0  0  0  0
    0.2450   -0.6042    1.0968 C   0  0  0  0  0  0  0  0  0  0  0  0
    2.8167   -0.8143    1.1825 C   0  0  0  0  0  0  0  0  0  0  0  0
    3.0174   -0.4522    2.3248 O   0  0  0  0  0  0  0  0  0  0  0  0
    3.7041   -1.2280    0.2289 N   0  0  0  0  0  0  0  0  0  0  0  0
    5.1370   -1.2597    0.4160 C   0  0  0  0  0  0  0  0  0  0  0  0
    5.7348   -0.0307   -0.1700 C   0  0  0  0  0  0  0  0  0  0  0  0
    6.0941    0.3279   -1.4539 C   0  0  0  0  0  0  0  0  0  0  0  0
    6.6106    1.6430   -1.3716 C   0  0  0  0  0  0  0  0  0  0  0  0
    6.5345    2.0021   -0.0466 C   0  0  0  0  0  0  0  0  0  0  0  0
    6.0048    0.9926    0.6902 O   0  0  0  0  0  0  0  0  0  0  0  0
    3.0790   -1.5931   -0.9297 C   0  0  0  0  0  0  0  0  0  0  0  0
    3.5539   -2.0199   -1.9646 O   0  0  0  0  0  0  0  0  0  0  0  0
   -2.7254    0.3447   -1.0070 H   0  0  0  0  0  0  0  0  0  0  0  0
   -4.6522   -0.3135    2.1514 H   0  0  0  0  0  0  0  0  0  0  0  0
   -6.9885    0.3563    2.3860 H   0  0  0  0  0  0  0  0  0  0  0  0
   -8.1738    1.4860    0.5342 H   0  0  0  0  0  0  0  0  0  0  0  0
   -7.9719    2.2781   -1.5792 H   0  0  0  0  0  0  0  0  0  0  0  0
   -4.6207    1.2936   -1.8648 H   0  0  0  0  0  0  0  0  0  0  0  0
   -1.5639   -1.4802   -1.6917 H   0  0  0  0  0  0  0  0  0  0  0  0
    0.7205   -1.9743   -2.5616 H   0  0  0  0  0  0  0  0  0  0  0  0
    0.1357   -0.2426    2.1158 H   0  0  0  0  0  0  0  0  0  0  0  0
    5.5412   -2.1446   -0.0879 H   0  0  0  0  0  0  0  0  0  0  0  0
    5.3681   -1.3299    1.4842 H   0  0  0  0  0  0  0  0  0  0  0  0
    5.9869   -0.2873   -2.3377 H   0  0  0  0  0  0  0  0  0  0  0  0
    6.9904    2.2551   -2.1774 H   0  0  0  0  0  0  0  0  0  0  0  0
    6.8007    2.8926    0.5059 H   0  0  0  0  0  0  0  0  0  0  0  0
  1  2  2  0
  2  3  1  0
  3  4  1  0
  4  5  2  0
  5  6  1  0
  6  7  2  0
  7  8  1  0
  8  9  1  0
  8 10  2  0
  2 11  1  0
 11 12  2  0
 12 13  1  0
 13 14  2  0
 14 15  1  0
 15 16  2  0
 15 17  1  0
 17 18  2  0
 17 19  1  0
 19 20  1  0
 20 21  1  0
 21 22  2  0
 22 23  1  0
 23 24  2  0
 24 25  1  0
 19 26  1  0
 26 27  2  0
 10  4  1  0
 16 11  1  0
 25 21  1  0
 26 14  1  0
  3 28  1  0
  5 29  1  0
  6 30  1  0
  7 31  1  0
  9 32  1  0
 10 33  1  0
 12 34  1  0
 13 35  1  0
 16 36  1  0
 20 37  1  0
 20 38  1  0
 22 39  1  0
 23 40  1  0
 24 41  1  0
M  END
$$$$
