
     RDKit          3D

 51 53  0  0  0  0  0  0  0  0999 V2000
   -0.3685   -1.4044   -0.6300 O   0  0  0  0  0  0  0  0  0  0  0  0
   -0.4803   -0.5199    0.2130 C   0  0  0  0  0  0  0  0  0  0  0  0
   -1.6849    0.0642    0.5335 N   0  0  0  0  0  0  0  0  0  0  0  0
   -2.9330   -0.4294   -0.0262 C   0  0  0  0  0  0  0  0  0  0  0  0
   -4.0847    0.5730    0.1642 C   0  0  0  0  0  0  0  0  0  0  0  0
   -5.3498    0.1671   -0.4721 N   0  0  0  0  0  0  0  0  0  0  0  0
   -6.3302    1.2752   -0.4107 C   0  0  0  0  0  0  0  0  0  0  0  0
   -7.6830    0.8685   -1.0148 C   0  0  0  0  0  0  0  0  0  0  0  0
   -8.2239   -0.2747   -0.3407 O   0  0  0  0  0  0  0  0  0  0  0  0
   -7.3119   -1.3755   -0.4421 C   0  0  0  0  0  0  0  0  0  0  0  0
   -5.9446   -1.0258    0.1701 C   0  0  0  0  0  0  0  0  0  0  0  0
    0.7343   -0.0415    0.9297 C   0  0  0  0  0  0  0  0  0  0  0  0
    1.9541   -0.6820    0.6580 C   0  0  0  0  0  0  0  0  0  0  0  0
    3.1265   -0.2422    1.2815 C   0  0  0  0  0  0  0  0  0  0  0  0
    4.6605   -1.0677    0.9227 S   0  0  0  0  0  6  0  0  0  0  0  0
    5.6871   -0.4480    1.7316 O   0  0  0  0  0  0  0  0  0  0  0  0
    4.3929   -2.4873    1.0332 O   0  0  0  0  0  0  0  0  0  0  0  0
    4.9993   -0.7080   -0.7946 C   0  0  0  0  0  0  0  0  0  0  0  0
    6.3340   -1.3197   -1.2457 C   0  0  0  0  0  0  0  0  0  0  0  0
    7.4531   -0.3965   -0.7725 C   0  0  0  0  0  0  0  0  0  0  0  0
    6.7834    1.2499   -0.9253 S   0  0  0  0  0  6  0  0  0  0  0  0
    6.9410    1.9705    0.3177 O   0  0  0  0  0  0  0  0  0  0  0  0
    7.2145    1.8026   -2.1929 O   0  0  0  0  0  0  0  0  0  0  0  0
    5.0727    0.7815   -1.0972 C   0  0  0  0  0  0  0  0  0  0  0  0
    3.0991    0.8153    2.1943 C   0  0  0  0  0  0  0  0  0  0  0  0
    1.8861    1.4449    2.4723 C   0  0  0  0  0  0  0  0  0  0  0  0
    0.7164    1.0175    1.8420 C   0  0  0  0  0  0  0  0  0  0  0  0
   -0.4263    1.6529    2.1440 F   0  0  0  0  0  0  0  0  0  0  0  0
   -1.7294    0.6883    1.3321 H   0  0  0  0  0  0  0  0  0  0  0  0
   -3.1454   -1.3784    0.4769 H   0  0  0  0  0  0  0  0  0  0  0  0
   -2.7807   -0.6399   -1.0911 H   0  0  0  0  0  0  0  0  0  0  0  0
   -4.2311    0.7633    1.2360 H   0  0  0  0  0  0  0  0  0  0  0  0
   -3.7595    1.5258   -0.2750 H   0  0  0  0  0  0  0  0  0  0  0  0
   -5.9479    2.1424   -0.9613 H   0  0  0  0  0  0  0  0  0  0  0  0
   -6.4851    1.5769    0.6336 H   0  0  0  0  0  0  0  0  0  0  0  0
   -7.5923    0.6500   -2.0857 H   0  0  0  0  0  0  0  0  0  0  0  0
   -8.4000    1.6881   -0.9025 H   0  0  0  0  0  0  0  0  0  0  0  0
   -7.7528   -2.2201    0.0971 H   0  0  0  0  0  0  0  0  0  0  0  0
   -7.2127   -1.6683   -1.4944 H   0  0  0  0  0  0  0  0  0  0  0  0
   -6.0736   -0.8439    1.2450 H   0  0  0  0  0  0  0  0  0  0  0  0
   -5.2891   -1.8939    0.0476 H   0  0  0  0  0  0  0  0  0  0  0  0
    1.9789   -1.5283   -0.0280 H   0  0  0  0  0  0  0  0  0  0  0  0
    4.1752   -1.1674   -1.3524 H   0  0  0  0  0  0  0  0  0  0  0  0
    6.3489   -1.3626   -2.3422 H   0  0  0  0  0  0  0  0  0  0  0  0
    6.4828   -2.3391   -0.8763 H   0  0  0  0  0  0  0  0  0  0  0  0
    8.3469   -0.4842   -1.3946 H   0  0  0  0  0  0  0  0  0  0  0  0
    7.7213   -0.5708    0.2712 H   0  0  0  0  0  0  0  0  0  0  0  0
    4.7994    0.9657   -2.1415 H   0  0  0  0  0  0  0  0  0  0  0  0
    4.4625    1.4161   -0.4534 H   0  0  0  0  0  0  0  0  0  0  0  0
    4.0064    1.1518    2.6951 H   0  0  0  0  0  0  0  0  0  0  0  0
    1.8433    2.2679    3.1813 H   0  0  0  0  0  0  0  0  0  0  0  0
  1  2  2  0
  2  3  1  0
  3  4  1  0
  4  5  1  0
  5  6  1  0
  6  7  1  0
  7  8  1  0
  8  9  1  0
  9 10  1  0
 10 11  1  0
  2 12  1  0
 12 13  2  0
 13 14  1  0
 14 15  1  0
 15 16  2  0
 15 17  2  0
 15 18  1  0
 18 19  1  0
 19 20  1  0
 20 21  1  0
 21 22  2  0
 21 23  2  0
 21 24  1  0
 14 25  2  0
 25 26  1  0
 26 27  2  0
 27 28  1  0
 11  6  1  0
 27 12  1  0
 24 18  1  0
  3 29  1  0
  4 30  1  0
  4 31  1  0
  5 32  1  0
  5 33  1  0
  7 34  1  0
  7 35  1  0
  8 36  1  0
  8 37  1  0
 10 38  1  0
 10 39  1  0
 11 40  1  0
 11 41  1  0
 13 42  1  0
 18 43  1  0
 19 44  1  0
 19 45  1  0
 20 46  1  0
 20 47  1  0
 24 48  1  0
 24 49  1  0
 25 50  1  0
 26 51  1  0
M  END
$$$$
