
     RDKit          3D

 39 40  0  0  0  0  0  0  0  0999 V2000
   -5.0069   -2.4017    0.8543 C   0  0  0  0  0  0  0  0  0  0  0  0
   -4.0827   -1.3273    0.6044 N   0  0  0  0  0  0  0  0  0  0  0  0
   -2.7380   -1.4471    0.8631 C   0  0  0  0  0  0  0  0  0  0  0  0
   -2.2361   -2.5012    1.2442 O   0  0  0  0  0  0  0  0  0  0  0  0
   -1.8732   -0.2332    0.6687 C   0  0  0  0  0  0  0  0  0  0  0  0
   -0.5173   -0.3878    1.0177 C   0  0  0  0  0  0  0  0  0  0  0  0
    0.3788    0.6671    0.8478 C   0  0  0  0  0  0  0  0  0  0  0  0
    2.0861    0.4811    1.2985 S   0  0  0  0  0  6  0  0  0  0  0  0
    2.2640   -0.7966    1.9529 O   0  0  0  0  0  0  0  0  0  0  0  0
    2.4961    1.7162    1.9322 O   0  0  0  0  0  0  0  0  0  0  0  0
    2.8555    0.3886   -0.2202 N   0  0  0  0  0  0  0  0  0  0  0  0
    2.5606   -0.8423   -1.0292 C   0  0  0  0  0  0  0  0  0  0  0  0
    3.7561   -1.7995   -1.0353 C   0  0  0  0  0  0  0  0  0  0  0  0
    4.9303   -1.2214   -1.6235 O   0  0  0  0  0  0  0  0  0  0  0  0
    5.0279    0.1954   -1.4201 C   0  0  0  0  0  0  0  0  0  0  0  0
    4.3278    0.6709   -0.1444 C   0  0  0  0  0  0  0  0  0  0  0  0
   -0.0601    1.8943    0.3562 C   0  0  0  0  0  0  0  0  0  0  0  0
   -1.4047    2.0622    0.0173 C   0  0  0  0  0  0  0  0  0  0  0  0
   -2.3233    1.0094    0.1643 C   0  0  0  0  0  0  0  0  0  0  0  0
   -3.6535    1.1297   -0.1533 O   0  0  0  0  0  0  0  0  0  0  0  0
   -4.1019    2.3596   -0.7139 C   0  0  0  0  0  0  0  0  0  0  0  0
   -5.2381   -2.4213    1.9225 H   0  0  0  0  0  0  0  0  0  0  0  0
   -4.5688   -3.3587    0.5589 H   0  0  0  0  0  0  0  0  0  0  0  0
   -5.9188   -2.2164    0.2821 H   0  0  0  0  0  0  0  0  0  0  0  0
   -4.4434   -0.4078    0.3718 H   0  0  0  0  0  0  0  0  0  0  0  0
   -0.1652   -1.3374    1.4206 H   0  0  0  0  0  0  0  0  0  0  0  0
    2.3387   -0.5079   -2.0497 H   0  0  0  0  0  0  0  0  0  0  0  0
    1.6726   -1.3634   -0.6621 H   0  0  0  0  0  0  0  0  0  0  0  0
    3.5146   -2.6997   -1.6093 H   0  0  0  0  0  0  0  0  0  0  0  0
    4.0086   -2.1181   -0.0176 H   0  0  0  0  0  0  0  0  0  0  0  0
    4.6020    0.6896   -2.3011 H   0  0  0  0  0  0  0  0  0  0  0  0
    6.0922    0.4485   -1.3851 H   0  0  0  0  0  0  0  0  0  0  0  0
    4.7598    0.1550    0.7213 H   0  0  0  0  0  0  0  0  0  0  0  0
    4.4730    1.7498   -0.0282 H   0  0  0  0  0  0  0  0  0  0  0  0
    0.6367    2.7228    0.2403 H   0  0  0  0  0  0  0  0  0  0  0  0
   -1.7029    3.0372   -0.3567 H   0  0  0  0  0  0  0  0  0  0  0  0
   -3.5921    2.5725   -1.6592 H   0  0  0  0  0  0  0  0  0  0  0  0
   -5.1699    2.2567   -0.9286 H   0  0  0  0  0  0  0  0  0  0  0  0
   -3.9843    3.1825   -0.0015 H   0  0  0  0  0  0  0  0  0  0  0  0
  1  2  1  0
  2  3  1  0
  3  4  2  0
  3  5  1  0
  5  6  2  0
  6  7  1  0
  7  8  1  0
  8  9  2  0
  8 10  2  0
  8 11  1  0
 11 12  1  0
 12 13  1  0
 13 14  1  0
 14 15  1  0
 15 16  1  0
  7 17  2  0
 17 18  1  0
 18 19  2  0
 19 20  1  0
 20 21  1  0
 19  5  1  0
 16 11  1  0
  1 22  1  0
  1 23  1  0
  1 24  1  0
  2 25  1  0
  6 26  1  0
 12 27  1  0
 12 28  1  0
 13 29  1  0
 13 30  1  0
 15 31  1  0
 15 32  1  0
 16 33  1  0
 16 34  1  0
 17 35  1  0
 18 36  1  0
 21 37  1  0
 21 38  1  0
 21 39  1  0
M  END
$$$$
