
     RDKit          3D

 32 35  0  0  0  0  0  0  0  0999 V2000
    5.8148    0.3717    0.0893 C   0  0  0  0  0  0  0  0  0  0  0  0
    4.3796    0.1421    0.0017 N   0  0  0  0  0  0  0  0  0  0  0  0
    3.5262    1.1590    0.3938 C   0  0  0  0  0  0  0  0  0  0  0  0
    2.1973    1.0121    0.3380 C   0  0  0  0  0  0  0  0  0  0  0  0
    1.6208   -0.2293   -0.1398 C   0  0  0  0  0  0  0  0  0  0  0  0
    2.4339   -1.2302   -0.5258 C   0  0  0  0  0  0  0  0  0  0  0  0
    1.7636   -2.4690   -1.0025 C   0  0  0  0  0  0  0  0  0  0  0  0
    0.4815   -2.6678   -1.0783 N   0  0  0  0  0  0  0  0  0  0  0  0
   -0.3067   -1.6274   -0.6772 C   0  0  0  0  0  0  0  0  0  0  0  0
   -1.6160   -1.5445   -0.6445 N   0  0  0  0  0  0  0  0  0  0  0  0
   -1.8658   -0.2860   -0.1597 C   0  0  0  0  0  0  0  0  0  0  0  0
   -3.2269    0.2103    0.0322 C   0  0  0  0  0  0  0  0  0  0  0  0
   -3.4634    1.5015    0.5296 C   0  0  0  0  0  0  0  0  0  0  0  0
   -4.7698    1.9681    0.7100 C   0  0  0  0  0  0  0  0  0  0  0  0
   -5.8486    1.1454    0.3938 C   0  0  0  0  0  0  0  0  0  0  0  0
   -7.4550    1.7193    0.6157 Cl  0  0  0  0  0  0  0  0  0  0  0  0
   -5.6336   -0.1387   -0.1009 C   0  0  0  0  0  0  0  0  0  0  0  0
   -4.3269   -0.6038   -0.2807 C   0  0  0  0  0  0  0  0  0  0  0  0
   -0.7664    0.4294    0.1152 N   0  0  0  0  0  0  0  0  0  0  0  0
    0.2360   -0.4231   -0.2137 N   0  0  0  0  0  0  0  0  0  0  0  0
    3.9112   -1.0855   -0.4709 C   0  0  0  0  0  0  0  0  0  0  0  0
    4.6280   -2.0154   -0.8294 O   0  0  0  0  0  0  0  0  0  0  0  0
    6.0784    0.5856    1.1300 H   0  0  0  0  0  0  0  0  0  0  0  0
    6.0774    1.2285   -0.5394 H   0  0  0  0  0  0  0  0  0  0  0  0
    6.3874   -0.4973   -0.2457 H   0  0  0  0  0  0  0  0  0  0  0  0
    3.9798    2.0810    0.7486 H   0  0  0  0  0  0  0  0  0  0  0  0
    1.5347    1.8164    0.6481 H   0  0  0  0  0  0  0  0  0  0  0  0
    2.4376   -3.2843   -1.3168 H   0  0  0  0  0  0  0  0  0  0  0  0
   -2.6300    2.1548    0.7808 H   0  0  0  0  0  0  0  0  0  0  0  0
   -4.9351    2.9703    1.0961 H   0  0  0  0  0  0  0  0  0  0  0  0
   -6.4726   -0.7834   -0.3487 H   0  0  0  0  0  0  0  0  0  0  0  0
   -4.1713   -1.6098   -0.6683 H   0  0  0  0  0  0  0  0  0  0  0  0
  1  2  1  0
  2  3  1  0
  3  4  2  0
  4  5  1  0
  5  6  2  0
  6  7  1  0
  7  8  2  0
  8  9  1  0
  9 10  2  0
 10 11  1  0
 11 12  1  0
 12 13  2  0
 13 14  1  0
 14 15  2  0
 15 16  1  0
 15 17  1  0
 17 18  2  0
 11 19  2  0
 19 20  1  0
  6 21  1  0
 21 22  2  0
 21  2  1  0
 20  5  1  0
 20  9  1  0
 18 12  1  0
  1 23  1  0
  1 24  1  0
  1 25  1  0
  3 26  1  0
  4 27  1  0
  7 28  1  0
 13 29  1  0
 14 30  1  0
 17 31  1  0
 18 32  1  0
M  END
$$$$
