
     RDKit          3D

 38 40  0  0  0  0  0  0  0  0999 V2000
   -7.3025   -0.7999   -0.2739 C   0  0  0  0  0  0  0  0  0  0  0  0
   -5.8151   -0.6317   -0.1792 C   0  0  0  0  0  0  0  0  0  0  0  0
   -5.2602    0.2956    0.7071 C   0  0  0  0  0  0  0  0  0  0  0  0
   -3.8715    0.4296    0.8182 C   0  0  0  0  0  0  0  0  0  0  0  0
   -3.0057   -0.3666    0.0545 C   0  0  0  0  0  0  0  0  0  0  0  0
   -1.5597   -0.2165    0.1787 C   0  0  0  0  0  0  0  0  0  0  0  0
   -0.7251    0.5861    0.9185 C   0  0  0  0  0  0  0  0  0  0  0  0
    0.5953    0.2108    0.5425 C   0  0  0  0  0  0  0  0  0  0  0  0
    1.8341    0.7786    1.1029 C   0  0  0  0  0  0  0  0  0  0  0  0
    1.7738    1.4360    2.1453 O   0  0  0  0  0  0  0  0  0  0  0  0
    3.0645    0.5732    0.4607 N   0  0  0  0  0  0  0  0  0  0  0  0
    4.2798    0.9938    1.1544 C   0  0  0  0  0  0  0  0  0  0  0  0
    5.4678    0.1162    0.7791 C   0  0  0  0  0  0  0  0  0  0  0  0
    5.7420    0.1228   -0.7246 C   0  0  0  0  0  0  0  0  0  0  0  0
    4.5257    0.5353   -1.5504 C   0  0  0  0  0  0  0  0  0  0  0  0
    3.2149    0.0830   -0.9123 C   0  0  0  0  0  0  0  0  0  0  0  0
    0.5487   -0.7876   -0.3547 N   0  0  0  0  0  0  0  0  0  0  0  0
   -0.7882   -1.0377   -0.5883 O   0  0  0  0  0  0  0  0  0  0  0  0
   -3.5719   -1.3048   -0.8209 C   0  0  0  0  0  0  0  0  0  0  0  0
   -4.9601   -1.4401   -0.9333 C   0  0  0  0  0  0  0  0  0  0  0  0
   -7.8160    0.1469   -0.0761 H   0  0  0  0  0  0  0  0  0  0  0  0
   -7.5958   -1.1242   -1.2779 H   0  0  0  0  0  0  0  0  0  0  0  0
   -7.6418   -1.5451    0.4521 H   0  0  0  0  0  0  0  0  0  0  0  0
   -5.9045    0.9229    1.3194 H   0  0  0  0  0  0  0  0  0  0  0  0
   -3.4803    1.1659    1.5161 H   0  0  0  0  0  0  0  0  0  0  0  0
   -1.0011    1.3430    1.6373 H   0  0  0  0  0  0  0  0  0  0  0  0
    4.4690    2.0402    0.8869 H   0  0  0  0  0  0  0  0  0  0  0  0
    4.1264    0.9553    2.2385 H   0  0  0  0  0  0  0  0  0  0  0  0
    6.3645    0.4351    1.3219 H   0  0  0  0  0  0  0  0  0  0  0  0
    5.2604   -0.9146    1.0947 H   0  0  0  0  0  0  0  0  0  0  0  0
    6.0776   -0.8763   -1.0280 H   0  0  0  0  0  0  0  0  0  0  0  0
    6.5707    0.8047   -0.9500 H   0  0  0  0  0  0  0  0  0  0  0  0
    4.6123    0.1352   -2.5667 H   0  0  0  0  0  0  0  0  0  0  0  0
    4.5161    1.6291   -1.6442 H   0  0  0  0  0  0  0  0  0  0  0  0
    3.1755   -1.0116   -0.8784 H   0  0  0  0  0  0  0  0  0  0  0  0
    2.3858    0.4496   -1.5251 H   0  0  0  0  0  0  0  0  0  0  0  0
   -2.9393   -1.9490   -1.4284 H   0  0  0  0  0  0  0  0  0  0  0  0
   -5.3662   -2.1832   -1.6164 H   0  0  0  0  0  0  0  0  0  0  0  0
  1  2  1  0
  2  3  2  0
  3  4  1  0
  4  5  2  0
  5  6  1  0
  6  7  2  0
  7  8  1  0
  8  9  1  0
  9 10  2  0
  9 11  1  0
 11 12  1  0
 12 13  1  0
 13 14  1  0
 14 15  1  0
 15 16  1  0
  8 17  2  0
 17 18  1  0
  5 19  1  0
 19 20  2  0
 20  2  1  0
 18  6  1  0
 16 11  1  0
  1 21  1  0
  1 22  1  0
  1 23  1  0
  3 24  1  0
  4 25  1  0
  7 26  1  0
 12 27  1  0
 12 28  1  0
 13 29  1  0
 13 30  1  0
 14 31  1  0
 14 32  1  0
 15 33  1  0
 15 34  1  0
 16 35  1  0
 16 36  1  0
 19 37  1  0
 20 38  1  0
M  END
$$$$
