
     RDKit          3D

 40 42  0  0  0  0  0  0  0  0999 V2000
    2.1433    1.9615    0.1682 O   0  0  0  0  0  0  0  0  0  0  0  0
    2.2986    0.7783   -0.1074 C   0  0  0  0  0  0  0  0  0  0  0  0
    3.5028    0.1216   -0.2841 N   0  0  0  0  0  0  0  0  0  0  0  0
    4.7971    0.6597   -0.1073 C   0  0  0  0  0  0  0  0  0  0  0  0
    5.0621    1.9406    0.3690 C   0  0  0  0  0  0  0  0  0  0  0  0
    6.3829    2.3690    0.5114 C   0  0  0  0  0  0  0  0  0  0  0  0
    7.4037    1.4966    0.1736 C   0  0  0  0  0  0  0  0  0  0  0  0
    7.1940    0.2467   -0.2876 N   0  0  0  0  0  0  0  0  0  0  0  0
    5.9008   -0.1373   -0.4148 C   0  0  0  0  0  0  0  0  0  0  0  0
    1.0846   -0.0601   -0.3248 C   0  0  0  0  0  0  0  0  0  0  0  0
   -0.0539    0.5455   -0.8730 C   0  0  0  0  0  0  0  0  0  0  0  0
   -1.2149   -0.2015   -1.0844 C   0  0  0  0  0  0  0  0  0  0  0  0
   -1.2406   -1.5533   -0.7463 C   0  0  0  0  0  0  0  0  0  0  0  0
   -2.4381   -2.2955   -0.9217 N   0  0  0  0  0  0  0  0  0  0  0  0
   -3.5211   -2.3672    0.3783 S   0  0  0  0  0  6  0  0  0  0  0  0
   -2.7761   -2.4120    1.6181 O   0  0  0  0  0  0  0  0  0  0  0  0
   -4.4696   -3.4093    0.0436 O   0  0  0  0  0  0  0  0  0  0  0  0
   -4.3700   -0.8145    0.2641 C   0  0  0  0  0  0  0  0  0  0  0  0
   -4.0390    0.2242    1.1394 C   0  0  0  0  0  0  0  0  0  0  0  0
   -4.7168    1.4396    1.0473 C   0  0  0  0  0  0  0  0  0  0  0  0
   -5.7235    1.6081    0.0947 C   0  0  0  0  0  0  0  0  0  0  0  0
   -6.0603    0.5623   -0.7670 C   0  0  0  0  0  0  0  0  0  0  0  0
   -5.3865   -0.6559   -0.6827 C   0  0  0  0  0  0  0  0  0  0  0  0
   -0.1195   -2.1594   -0.1786 C   0  0  0  0  0  0  0  0  0  0  0  0
    1.0439   -1.4139    0.0364 C   0  0  0  0  0  0  0  0  0  0  0  0
    3.4664   -0.8242   -0.6416 H   0  0  0  0  0  0  0  0  0  0  0  0
    4.2683    2.6281    0.6419 H   0  0  0  0  0  0  0  0  0  0  0  0
    6.6049    3.3644    0.8804 H   0  0  0  0  0  0  0  0  0  0  0  0
    8.4453    1.7893    0.2693 H   0  0  0  0  0  0  0  0  0  0  0  0
    5.7798   -1.1497   -0.7891 H   0  0  0  0  0  0  0  0  0  0  0  0
   -0.0391    1.6024   -1.1340 H   0  0  0  0  0  0  0  0  0  0  0  0
   -2.0896    0.2797   -1.5146 H   0  0  0  0  0  0  0  0  0  0  0  0
   -2.3720   -3.2044   -1.3785 H   0  0  0  0  0  0  0  0  0  0  0  0
   -3.2582    0.0975    1.8863 H   0  0  0  0  0  0  0  0  0  0  0  0
   -4.4637    2.2553    1.7207 H   0  0  0  0  0  0  0  0  0  0  0  0
   -6.2525    2.5562    0.0286 H   0  0  0  0  0  0  0  0  0  0  0  0
   -6.8520    0.6968   -1.5002 H   0  0  0  0  0  0  0  0  0  0  0  0
   -5.6564   -1.4712   -1.3501 H   0  0  0  0  0  0  0  0  0  0  0  0
   -0.1537   -3.2011    0.1312 H   0  0  0  0  0  0  0  0  0  0  0  0
    1.8884   -1.8930    0.5244 H   0  0  0  0  0  0  0  0  0  0  0  0
  1  2  2  0
  2  3  1  0
  3  4  1  0
  4  5  2  0
  5  6  1  0
  6  7  2  0
  7  8  1  0
  8  9  2  0
  2 10  1  0
 10 11  2  0
 11 12  1  0
 12 13  2  0
 13 14  1  0
 14 15  1  0
 15 16  2  0
 15 17  2  0
 15 18  1  0
 18 19  2  0
 19 20  1  0
 20 21  2  0
 21 22  1  0
 22 23  2  0
 13 24  1  0
 24 25  2  0
  9  4  1  0
 25 10  1  0
 23 18  1  0
  3 26  1  0
  5 27  1  0
  6 28  1  0
  7 29  1  0
  9 30  1  0
 11 31  1  0
 12 32  1  0
 14 33  1  0
 19 34  1  0
 20 35  1  0
 21 36  1  0
 22 37  1  0
 23 38  1  0
 24 39  1  0
 25 40  1  0
M  END
$$$$
