
     RDKit          3D

 38 41  0  0  0  0  0  0  0  0999 V2000
    1.5744   -2.5380    0.6771 O   0  0  0  0  0  0  0  0  0  0  0  0
    1.1386   -1.4531    0.3073 C   0  0  0  0  0  0  0  0  0  0  0  0
    2.0809   -0.5731   -0.3962 C   0  0  0  0  0  0  0  0  0  0  0  0
    2.1012   -0.7230   -1.7922 C   0  0  0  0  0  0  0  0  0  0  0  0
    2.9125    0.0994   -2.5584 C   0  0  0  0  0  0  0  0  0  0  0  0
    2.9222   -0.0365   -3.8898 F   0  0  0  0  0  0  0  0  0  0  0  0
    3.7050    1.0696   -1.9628 C   0  0  0  0  0  0  0  0  0  0  0  0
    3.6987    1.2120   -0.5719 C   0  0  0  0  0  0  0  0  0  0  0  0
    2.8976    0.3787    0.2387 C   0  0  0  0  0  0  0  0  0  0  0  0
    2.9614    0.5616    1.6476 N   0  0  0  0  0  0  0  0  0  0  0  0
    2.4769   -0.1762    2.6992 C   0  0  0  0  0  0  0  0  0  0  0  0
    2.7403    0.4401    3.8299 N   0  0  0  0  0  0  0  0  0  0  0  0
    3.4321    1.5655    3.4880 N   0  0  0  0  0  0  0  0  0  0  0  0
    3.5894    1.6439    2.1763 N   0  0  0  0  0  0  0  0  0  0  0  0
   -0.1558   -1.0005    0.5205 N   0  0  0  0  0  0  0  0  0  0  0  0
   -1.0529   -1.8105    1.3413 C   0  0  0  0  0  0  0  0  0  0  0  0
   -2.4291   -1.9308    0.6938 C   0  0  0  0  0  0  0  0  0  0  0  0
   -2.9834   -0.5773    0.3307 C   0  0  0  0  0  0  0  0  0  0  0  0
   -4.3662   -0.4042    0.1817 C   0  0  0  0  0  0  0  0  0  0  0  0
   -4.8866    0.8384   -0.1769 C   0  0  0  0  0  0  0  0  0  0  0  0
   -4.0310    1.9143   -0.3977 C   0  0  0  0  0  0  0  0  0  0  0  0
   -2.6523    1.7477   -0.2661 C   0  0  0  0  0  0  0  0  0  0  0  0
   -2.1133    0.5014    0.0901 C   0  0  0  0  0  0  0  0  0  0  0  0
   -0.6148    0.3600    0.2211 C   0  0  0  0  0  0  0  0  0  0  0  0
    1.4828   -1.4694   -2.2843 H   0  0  0  0  0  0  0  0  0  0  0  0
    4.3313    1.7064   -2.5816 H   0  0  0  0  0  0  0  0  0  0  0  0
    4.3470    1.9739   -0.1378 H   0  0  0  0  0  0  0  0  0  0  0  0
    1.9782   -1.1274    2.6240 H   0  0  0  0  0  0  0  0  0  0  0  0
   -0.6399   -2.8110    1.5068 H   0  0  0  0  0  0  0  0  0  0  0  0
   -1.1230   -1.3223    2.3216 H   0  0  0  0  0  0  0  0  0  0  0  0
   -2.3587   -2.5289   -0.2230 H   0  0  0  0  0  0  0  0  0  0  0  0
   -3.1052   -2.4465    1.3853 H   0  0  0  0  0  0  0  0  0  0  0  0
   -5.0457   -1.2377    0.3459 H   0  0  0  0  0  0  0  0  0  0  0  0
   -5.9606    0.9666   -0.2853 H   0  0  0  0  0  0  0  0  0  0  0  0
   -4.4381    2.8831   -0.6759 H   0  0  0  0  0  0  0  0  0  0  0  0
   -1.9988    2.5988   -0.4463 H   0  0  0  0  0  0  0  0  0  0  0  0
   -0.1467    0.7075   -0.7049 H   0  0  0  0  0  0  0  0  0  0  0  0
   -0.2684    0.9976    1.0435 H   0  0  0  0  0  0  0  0  0  0  0  0
  1  2  2  0
  2  3  1  0
  3  4  2  0
  4  5  1  0
  5  6  1  0
  5  7  2  0
  7  8  1  0
  8  9  2  0
  9 10  1  0
 10 11  1  0
 11 12  2  0
 12 13  1  0
 13 14  2  0
  2 15  1  0
 15 16  1  0
 16 17  1  0
 17 18  1  0
 18 19  2  0
 19 20  1  0
 20 21  2  0
 21 22  1  0
 22 23  2  0
 23 24  1  0
  9  3  1  0
 14 10  1  0
 24 15  1  0
 23 18  1  0
  4 25  1  0
  7 26  1  0
  8 27  1  0
 11 28  1  0
 16 29  1  0
 16 30  1  0
 17 31  1  0
 17 32  1  0
 19 33  1  0
 20 34  1  0
 21 35  1  0
 22 36  1  0
 24 37  1  0
 24 38  1  0
M  END
$$$$
