
     RDKit          3D

 52 54  0  0  0  0  0  0  0  0999 V2000
    4.1835    2.0291   -3.7055 C   0  0  0  0  0  0  0  0  0  0  0  0
    4.2450    2.7533   -2.4834 O   0  0  0  0  0  0  0  0  0  0  0  0
    3.6659    2.1703   -1.3906 C   0  0  0  0  0  0  0  0  0  0  0  0
    2.8741    1.0238   -1.3958 C   0  0  0  0  0  0  0  0  0  0  0  0
    2.3411    0.5338   -0.1984 C   0  0  0  0  0  0  0  0  0  0  0  0
    2.5880    1.1838    1.0203 C   0  0  0  0  0  0  0  0  0  0  0  0
    1.9785    0.6741    2.3042 C   0  0  0  0  0  0  0  0  0  0  0  0
    2.2574   -0.7431    2.5053 N   0  0  0  0  0  0  0  0  0  0  0  0
    1.1451   -1.6772    3.3272 S   0  0  0  0  0  6  0  0  0  0  0  0
    1.8367   -2.8831    3.7243 O   0  0  0  0  0  0  0  0  0  0  0  0
    0.4556   -0.8376    4.2789 O   0  0  0  0  0  0  0  0  0  0  0  0
    0.0259   -2.0979    2.0157 C   0  0  0  0  0  0  0  0  0  0  0  0
    0.2778   -3.2215    1.2258 C   0  0  0  0  0  0  0  0  0  0  0  0
   -0.5823   -3.5296    0.1671 C   0  0  0  0  0  0  0  0  0  0  0  0
   -1.6982   -2.7255   -0.1094 C   0  0  0  0  0  0  0  0  0  0  0  0
   -2.7098   -3.1704   -1.5146 S   0  0  0  0  0  0  0  0  0  0  0  0
   -4.0412   -4.0377   -0.6378 C   0  0  0  0  0  0  0  0  0  0  0  0
   -1.9305   -1.6011    0.6985 C   0  0  0  0  0  0  0  0  0  0  0  0
   -3.0602   -0.6852    0.4563 C   0  0  0  0  0  0  0  0  0  0  0  0
   -4.1485   -0.9569    0.9512 O   0  0  0  0  0  0  0  0  0  0  0  0
   -2.7998    0.4576   -0.2695 N   0  0  0  0  0  0  0  0  0  0  0  0
   -1.5462    0.8356   -0.9081 C   0  0  0  0  0  0  0  0  0  0  0  0
   -1.9278    1.9787   -1.8390 C   0  0  0  0  0  0  0  0  0  0  0  0
   -3.1024    2.6268   -1.1163 C   0  0  0  0  0  0  0  0  0  0  0  0
   -3.8425    1.4304   -0.5349 C   0  0  0  0  0  0  0  0  0  0  0  0
   -1.0895   -1.2961    1.7758 C   0  0  0  0  0  0  0  0  0  0  0  0
    3.3716    2.3419    1.0136 C   0  0  0  0  0  0  0  0  0  0  0  0
    3.9075    2.8259   -0.1822 C   0  0  0  0  0  0  0  0  0  0  0  0
    4.7552    2.5860   -4.4543 H   0  0  0  0  0  0  0  0  0  0  0  0
    4.6422    1.0401   -3.6028 H   0  0  0  0  0  0  0  0  0  0  0  0
    3.1535    1.9507   -4.0645 H   0  0  0  0  0  0  0  0  0  0  0  0
    2.6498    0.4891   -2.3113 H   0  0  0  0  0  0  0  0  0  0  0  0
    1.7280   -0.3658   -0.2235 H   0  0  0  0  0  0  0  0  0  0  0  0
    2.3844    1.2247    3.1607 H   0  0  0  0  0  0  0  0  0  0  0  0
    0.9034    0.8762    2.2604 H   0  0  0  0  0  0  0  0  0  0  0  0
    3.2264   -1.0328    2.6235 H   0  0  0  0  0  0  0  0  0  0  0  0
    1.1401   -3.8560    1.4205 H   0  0  0  0  0  0  0  0  0  0  0  0
   -0.3717   -4.4049   -0.4457 H   0  0  0  0  0  0  0  0  0  0  0  0
   -4.6054   -3.3501   -0.0053 H   0  0  0  0  0  0  0  0  0  0  0  0
   -3.6314   -4.8470   -0.0270 H   0  0  0  0  0  0  0  0  0  0  0  0
   -4.7277   -4.4697   -1.3709 H   0  0  0  0  0  0  0  0  0  0  0  0
   -1.0966   -0.0060   -1.4405 H   0  0  0  0  0  0  0  0  0  0  0  0
   -0.8617    1.1759   -0.1246 H   0  0  0  0  0  0  0  0  0  0  0  0
   -1.1005    2.6694   -2.0232 H   0  0  0  0  0  0  0  0  0  0  0  0
   -2.2636    1.5798   -2.8041 H   0  0  0  0  0  0  0  0  0  0  0  0
   -2.7302    3.2674   -0.3090 H   0  0  0  0  0  0  0  0  0  0  0  0
   -3.7313    3.2318   -1.7756 H   0  0  0  0  0  0  0  0  0  0  0  0
   -4.5315    0.9932   -1.2655 H   0  0  0  0  0  0  0  0  0  0  0  0
   -4.3966    1.6716    0.3777 H   0  0  0  0  0  0  0  0  0  0  0  0
   -1.3033   -0.4324    2.4021 H   0  0  0  0  0  0  0  0  0  0  0  0
    3.5753    2.8807    1.9360 H   0  0  0  0  0  0  0  0  0  0  0  0
    4.5186    3.7257   -0.1742 H   0  0  0  0  0  0  0  0  0  0  0  0
  1  2  1  0
  2  3  1  0
  3  4  2  0
  4  5  1  0
  5  6  2  0
  6  7  1  0
  7  8  1  0
  8  9  1  0
  9 10  2  0
  9 11  2  0
  9 12  1  0
 12 13  2  0
 13 14  1  0
 14 15  2  0
 15 16  1  0
 16 17  1  0
 15 18  1  0
 18 19  1  0
 19 20  2  0
 19 21  1  0
 21 22  1  0
 22 23  1  0
 23 24  1  0
 24 25  1  0
 18 26  2  0
  6 27  1  0
 27 28  2  0
 28  3  1  0
 26 12  1  0
 25 21  1  0
  1 29  1  0
  1 30  1  0
  1 31  1  0
  4 32  1  0
  5 33  1  0
  7 34  1  0
  7 35  1  0
  8 36  1  0
 13 37  1  0
 14 38  1  0
 17 39  1  0
 17 40  1  0
 17 41  1  0
 22 42  1  0
 22 43  1  0
 23 44  1  0
 23 45  1  0
 24 46  1  0
 24 47  1  0
 25 48  1  0
 25 49  1  0
 26 50  1  0
 27 51  1  0
 28 52  1  0
M  END
$$$$
