
     RDKit          3D

 41 42  0  0  0  0  0  0  0  0999 V2000
    7.8714   -0.4263   -1.7027 C   0  0  0  0  0  0  0  0  0  0  0  0
    6.3549   -0.3298   -1.6645 C   0  0  0  0  0  0  0  0  0  0  0  0
    5.8257   -0.3926   -0.2340 C   0  0  0  0  0  0  0  0  0  0  0  0
    4.3079   -0.2979   -0.1680 C   0  0  0  0  0  0  0  0  0  0  0  0
    3.6191   -0.1842   -1.1742 O   0  0  0  0  0  0  0  0  0  0  0  0
    3.8666   -0.3581    1.1377 N   0  0  0  0  0  0  0  0  0  0  0  0
    2.5429   -0.2943    1.4696 C   0  0  0  0  0  0  0  0  0  0  0  0
    1.4960   -0.1744    0.7005 N   0  0  0  0  0  0  0  0  0  0  0  0
    0.3374   -0.1503    1.4660 C   0  0  0  0  0  0  0  0  0  0  0  0
   -0.9741   -0.0213    0.8289 C   0  0  0  0  0  0  0  0  0  0  0  0
   -1.0483    0.1053   -0.5649 C   0  0  0  0  0  0  0  0  0  0  0  0
   -2.2829    0.2312   -1.2103 C   0  0  0  0  0  0  0  0  0  0  0  0
   -3.4726    0.2289   -0.4822 C   0  0  0  0  0  0  0  0  0  0  0  0
   -4.6007    0.3632   -1.2395 O   0  0  0  0  0  0  0  0  0  0  0  0
   -5.8822    0.2101   -0.6221 C   0  0  0  0  0  0  0  0  0  0  0  0
   -6.8292   -0.3111   -1.7012 C   0  0  0  0  0  0  0  0  0  0  0  0
   -6.3739    1.5590   -0.1053 C   0  0  0  0  0  0  0  0  0  0  0  0
   -3.4121    0.1094    0.9041 C   0  0  0  0  0  0  0  0  0  0  0  0
   -2.1739   -0.0162    1.5538 C   0  0  0  0  0  0  0  0  0  0  0  0
    0.5587   -0.2556    2.8279 C   0  0  0  0  0  0  0  0  0  0  0  0
    2.2429   -0.3874    3.1459 S   0  0  0  0  0  0  0  0  0  0  0  0
    8.2155   -1.3698   -1.2670 H   0  0  0  0  0  0  0  0  0  0  0  0
    8.3310    0.3972   -1.1468 H   0  0  0  0  0  0  0  0  0  0  0  0
    8.2283   -0.3793   -2.7363 H   0  0  0  0  0  0  0  0  0  0  0  0
    5.9257   -1.1457   -2.2583 H   0  0  0  0  0  0  0  0  0  0  0  0
    6.0403    0.6073   -2.1390 H   0  0  0  0  0  0  0  0  0  0  0  0
    6.2463    0.4325    0.3533 H   0  0  0  0  0  0  0  0  0  0  0  0
    6.1307   -1.3368    0.2329 H   0  0  0  0  0  0  0  0  0  0  0  0
    4.5192   -0.4519    1.9001 H   0  0  0  0  0  0  0  0  0  0  0  0
   -0.1390    0.1078   -1.1657 H   0  0  0  0  0  0  0  0  0  0  0  0
   -2.3108    0.3293   -2.2929 H   0  0  0  0  0  0  0  0  0  0  0  0
   -5.8622   -0.5373    0.1792 H   0  0  0  0  0  0  0  0  0  0  0  0
   -6.8737    0.3767   -2.5531 H   0  0  0  0  0  0  0  0  0  0  0  0
   -6.4705   -1.2703   -2.0904 H   0  0  0  0  0  0  0  0  0  0  0  0
   -7.8412   -0.4512   -1.3090 H   0  0  0  0  0  0  0  0  0  0  0  0
   -5.7040    1.9579    0.6626 H   0  0  0  0  0  0  0  0  0  0  0  0
   -6.3990    2.3007   -0.9115 H   0  0  0  0  0  0  0  0  0  0  0  0
   -7.3770    1.4756    0.3245 H   0  0  0  0  0  0  0  0  0  0  0  0
   -4.3052    0.1196    1.5189 H   0  0  0  0  0  0  0  0  0  0  0  0
   -2.1799   -0.1071    2.6358 H   0  0  0  0  0  0  0  0  0  0  0  0
   -0.1479   -0.2627    3.6435 H   0  0  0  0  0  0  0  0  0  0  0  0
  1  2  1  0
  2  3  1  0
  3  4  1  0
  4  5  2  0
  4  6  1  0
  6  7  1  0
  7  8  2  0
  8  9  1  0
  9 10  1  0
 10 11  2  0
 11 12  1  0
 12 13  2  0
 13 14  1  0
 14 15  1  0
 15 16  1  0
 15 17  1  0
 13 18  1  0
 18 19  2  0
  9 20  2  0
 20 21  1  0
 21  7  1  0
 19 10  1  0
  1 22  1  0
  1 23  1  0
  1 24  1  0
  2 25  1  0
  2 26  1  0
  3 27  1  0
  3 28  1  0
  6 29  1  0
 11 30  1  0
 12 31  1  0
 15 32  1  0
 16 33  1  0
 16 34  1  0
 16 35  1  0
 17 36  1  0
 17 37  1  0
 17 38  1  0
 18 39  1  0
 19 40  1  0
 20 41  1  0
M  END
$$$$
