
     RDKit          3D

 43 45  0  0  0  0  0  0  0  0999 V2000
    6.0681    2.7761   -0.8815 C   0  0  0  0  0  0  0  0  0  0  0  0
    5.8801    1.4005   -0.5836 O   0  0  0  0  0  0  0  0  0  0  0  0
    4.6207    0.9879   -0.2263 C   0  0  0  0  0  0  0  0  0  0  0  0
    3.5001    1.8252   -0.1758 C   0  0  0  0  0  0  0  0  0  0  0  0
    2.2525    1.3158    0.1946 C   0  0  0  0  0  0  0  0  0  0  0  0
    2.1177   -0.0401    0.5077 C   0  0  0  0  0  0  0  0  0  0  0  0
    0.8052   -0.6224    0.9049 C   0  0  0  0  0  0  0  0  0  0  0  0
    0.7965   -1.4999    1.7588 O   0  0  0  0  0  0  0  0  0  0  0  0
   -0.2845   -0.1219    0.2141 N   0  0  0  0  0  0  0  0  0  0  0  0
   -1.6436   -0.4532    0.4074 C   0  0  0  0  0  0  0  0  0  0  0  0
   -2.1015   -1.2781    1.4325 C   0  0  0  0  0  0  0  0  0  0  0  0
   -3.4648   -1.5500    1.5595 C   0  0  0  0  0  0  0  0  0  0  0  0
   -4.3797   -1.0089    0.6574 C   0  0  0  0  0  0  0  0  0  0  0  0
   -3.9494   -0.1654   -0.3727 C   0  0  0  0  0  0  0  0  0  0  0  0
   -2.5748    0.1053   -0.4845 C   0  0  0  0  0  0  0  0  0  0  0  0
   -4.9074    0.4164   -1.2493 N   0  0  0  0  0  0  0  0  0  0  0  0
   -4.5175    1.4311   -2.2119 C   0  0  0  0  0  0  0  0  0  0  0  0
   -6.2400    0.0309   -1.1770 C   0  0  0  0  0  0  0  0  0  0  0  0
   -7.1350    0.5206   -1.8668 O   0  0  0  0  0  0  0  0  0  0  0  0
   -6.5212   -1.1323   -0.2322 C   0  0  0  0  0  0  0  0  0  0  0  0
   -5.6900   -1.3138    0.8964 O   0  0  0  0  0  0  0  0  0  0  0  0
    3.2378   -0.8802    0.4800 C   0  0  0  0  0  0  0  0  0  0  0  0
    4.4891   -0.3759    0.1112 C   0  0  0  0  0  0  0  0  0  0  0  0
    5.6363   -1.1275    0.0421 O   0  0  0  0  0  0  0  0  0  0  0  0
    5.5710   -2.4720    0.4977 C   0  0  0  0  0  0  0  0  0  0  0  0
    7.1245    2.9245   -1.1251 H   0  0  0  0  0  0  0  0  0  0  0  0
    5.8356    3.4039   -0.0150 H   0  0  0  0  0  0  0  0  0  0  0  0
    5.4805    3.0741   -1.7560 H   0  0  0  0  0  0  0  0  0  0  0  0
    3.5686    2.8826   -0.4100 H   0  0  0  0  0  0  0  0  0  0  0  0
    1.4068    1.9949    0.2626 H   0  0  0  0  0  0  0  0  0  0  0  0
   -0.0863    0.4935   -0.5639 H   0  0  0  0  0  0  0  0  0  0  0  0
   -1.4269   -1.7206    2.1589 H   0  0  0  0  0  0  0  0  0  0  0  0
   -3.8122   -2.1881    2.3686 H   0  0  0  0  0  0  0  0  0  0  0  0
   -2.2111    0.7523   -1.2758 H   0  0  0  0  0  0  0  0  0  0  0  0
   -4.0288    2.2610   -1.6919 H   0  0  0  0  0  0  0  0  0  0  0  0
   -3.8375    0.9895   -2.9471 H   0  0  0  0  0  0  0  0  0  0  0  0
   -5.3802    1.8334   -2.7506 H   0  0  0  0  0  0  0  0  0  0  0  0
   -6.5106   -2.0543   -0.8265 H   0  0  0  0  0  0  0  0  0  0  0  0
   -7.5409   -1.0002    0.1469 H   0  0  0  0  0  0  0  0  0  0  0  0
    3.1020   -1.9246    0.7451 H   0  0  0  0  0  0  0  0  0  0  0  0
    5.2589   -2.5216    1.5462 H   0  0  0  0  0  0  0  0  0  0  0  0
    4.9144   -3.0717   -0.1409 H   0  0  0  0  0  0  0  0  0  0  0  0
    6.5773   -2.8967    0.4304 H   0  0  0  0  0  0  0  0  0  0  0  0
  1  2  1  0
  2  3  1  0
  3  4  2  0
  4  5  1  0
  5  6  2  0
  6  7  1  0
  7  8  2  0
  7  9  1  0
  9 10  1  0
 10 11  2  0
 11 12  1  0
 12 13  2  0
 13 14  1  0
 14 15  2  0
 14 16  1  0
 16 17  1  0
 16 18  1  0
 18 19  2  0
 18 20  1  0
 20 21  1  0
  6 22  1  0
 22 23  2  0
 23 24  1  0
 24 25  1  0
 23  3  1  0
 15 10  1  0
 21 13  1  0
  1 26  1  0
  1 27  1  0
  1 28  1  0
  4 29  1  0
  5 30  1  0
  9 31  1  0
 11 32  1  0
 12 33  1  0
 15 34  1  0
 17 35  1  0
 17 36  1  0
 17 37  1  0
 20 38  1  0
 20 39  1  0
 22 40  1  0
 25 41  1  0
 25 42  1  0
 25 43  1  0
M  END
$$$$
