
     RDKit          3D

 40 40  0  0  0  0  0  0  0  0999 V2000
   -5.9855    0.0169   -0.5738 C   0  0  0  0  0  0  0  0  0  0  0  0
   -4.5778   -0.0421   -0.2007 N   0  0  0  0  0  0  0  0  0  0  0  0
   -4.4898    0.3005    1.1973 C   0  0  0  0  0  0  0  0  0  0  0  0
   -3.8625    0.8523   -1.0578 C   0  0  0  0  0  0  0  0  0  0  0  0
   -2.3902    0.9035   -0.7955 C   0  0  0  0  0  0  0  0  0  0  0  0
   -1.6980   -0.4075   -0.9617 C   0  0  0  0  0  0  0  0  0  0  0  0
   -0.2871   -0.2249   -0.6814 N   0  0  0  0  0  0  0  0  0  0  0  0
    0.6296   -1.3119   -0.7606 C   0  0  0  0  0  0  0  0  0  0  0  0
    0.2380   -2.4645   -1.0773 O   0  0  0  0  0  0  0  0  0  0  0  0
    2.0446   -1.0690   -0.4665 C   0  0  0  0  0  0  0  0  0  0  0  0
    2.4273   -0.1901    0.5215 C   0  0  0  0  0  0  0  0  0  0  0  0
    3.7811    0.0139    0.7711 C   0  0  0  0  0  0  0  0  0  0  0  0
    4.1938    0.8967    1.7641 C   0  0  0  0  0  0  0  0  0  0  0  0
    5.5351    1.0724    1.9820 C   0  0  0  0  0  0  0  0  0  0  0  0
    6.1383    2.1602    3.2069 Cl  0  0  0  0  0  0  0  0  0  0  0  0
    6.4589    0.3706    1.2127 C   0  0  0  0  0  0  0  0  0  0  0  0
    6.0336   -0.4996    0.2337 C   0  0  0  0  0  0  0  0  0  0  0  0
    7.1930   -1.3919   -0.7446 Cl  0  0  0  0  0  0  0  0  0  0  0  0
    4.6823   -0.6853    0.0045 C   0  0  0  0  0  0  0  0  0  0  0  0
    4.3162   -1.5286   -0.9436 O   0  0  0  0  0  0  0  0  0  0  0  0
    3.0411   -1.7171   -1.1747 C   0  0  0  0  0  0  0  0  0  0  0  0
    2.7238   -2.5281   -2.0858 O   0  0  0  0  0  0  0  0  0  0  0  0
    0.6855    0.0000    0.0000 Cl  0  0  0  0  0  0  0  0  0  0  0  0
   -6.1326    0.0813   -1.6608 H   0  0  0  0  0  0  0  0  0  0  0  0
   -6.4819   -0.9173   -0.1924 H   0  0  0  0  0  0  0  0  0  0  0  0
   -6.4715    0.8607   -0.0269 H   0  0  0  0  0  0  0  0  0  0  0  0
   -3.4692    0.3728    1.5771 H   0  0  0  0  0  0  0  0  0  0  0  0
   -5.1084    1.1978    1.4047 H   0  0  0  0  0  0  0  0  0  0  0  0
   -4.9709   -0.5509    1.7595 H   0  0  0  0  0  0  0  0  0  0  0  0
   -4.0175    0.5291   -2.0992 H   0  0  0  0  0  0  0  0  0  0  0  0
   -4.2525    1.8947   -0.9752 H   0  0  0  0  0  0  0  0  0  0  0  0
   -2.1396    1.3128    0.2045 H   0  0  0  0  0  0  0  0  0  0  0  0
   -1.9482    1.6169   -1.5304 H   0  0  0  0  0  0  0  0  0  0  0  0
   -2.1169   -1.1561   -0.2415 H   0  0  0  0  0  0  0  0  0  0  0  0
   -1.8310   -0.8199   -1.9885 H   0  0  0  0  0  0  0  0  0  0  0  0
    0.0985    0.7066   -0.4137 H   0  0  0  0  0  0  0  0  0  0  0  0
    1.7157    0.3402    1.1026 H   0  0  0  0  0  0  0  0  0  0  0  0
    3.4512    1.4291    2.3470 H   0  0  0  0  0  0  0  0  0  0  0  0
    7.5288    0.4898    1.3630 H   0  0  0  0  0  0  0  0  0  0  0  0
   -0.6855    0.0000    0.0000 H   0  0  0  0  0  0  0  0  0  0  0  0
  1  2  1  0
  2  3  1  0
  2  4  1  0
  4  5  1  0
  5  6  1  0
  6  7  1  0
  7  8  1  0
  8  9  2  0
  8 10  1  0
 10 11  2  0
 11 12  1  0
 12 13  2  0
 13 14  1  0
 14 15  1  0
 14 16  2  0
 16 17  1  0
 17 18  1  0
 17 19  2  0
 19 20  1  0
 20 21  1  0
 21 22  2  0
 21 10  1  0
 19 12  1  0
  1 24  1  0
  1 25  1  0
  1 26  1  0
  3 27  1  0
  3 28  1  0
  3 29  1  0
  4 30  1  0
  4 31  1  0
  5 32  1  0
  5 33  1  0
  6 34  1  0
  6 35  1  0
  7 36  1  0
 11 37  1  0
 13 38  1  0
 16 39  1  0
 23 40  1  0
M  END
$$$$
