
     RDKit          3D

 51 54  0  0  0  0  0  0  0  0999 V2000
   -6.8900    1.5964   -1.9503 C   0  0  0  0  0  0  0  0  0  0  0  0
   -6.2126    0.5552   -1.1087 C   0  0  0  0  0  0  0  0  0  0  0  0
   -6.9686   -0.3385   -0.3408 C   0  0  0  0  0  0  0  0  0  0  0  0
   -6.3406   -1.2920    0.4674 C   0  0  0  0  0  0  0  0  0  0  0  0
   -7.1522   -2.2302    1.3113 C   0  0  0  0  0  0  0  0  0  0  0  0
   -4.9402   -1.3221    0.5237 C   0  0  0  0  0  0  0  0  0  0  0  0
   -4.1674   -0.4322   -0.2338 C   0  0  0  0  0  0  0  0  0  0  0  0
   -2.7665   -0.5175   -0.1015 N   0  0  0  0  0  0  0  0  0  0  0  0
   -1.8123    0.0783   -0.8968 C   0  0  0  0  0  0  0  0  0  0  0  0
   -2.0366    0.6339   -1.9688 O   0  0  0  0  0  0  0  0  0  0  0  0
   -0.5118   -0.0425   -0.3919 N   0  0  0  0  0  0  0  0  0  0  0  0
   -0.2329    0.0249    1.0527 C   0  0  0  0  0  0  0  0  0  0  0  0
    1.1616   -0.5194    1.4087 C   0  0  0  0  0  0  0  0  0  0  0  0
    2.2011    0.1483    0.5965 N   0  0  0  0  0  0  0  0  0  0  0  0
    3.5121   -0.2166    0.9693 C   0  0  0  0  0  0  0  0  0  0  0  0
    4.5890    0.4804    0.4509 C   0  0  0  0  0  0  0  0  0  0  0  0
    5.8534    0.0954    0.8607 C   0  0  0  0  0  0  0  0  0  0  0  0
    6.9867    0.7881    0.3409 N   0  0  0  0  0  0  0  0  0  0  0  0
    8.3080    0.5409    0.6546 C   0  0  0  0  0  0  0  0  0  0  0  0
    9.0681    1.4308   -0.0642 C   0  0  0  0  0  0  0  0  0  0  0  0
    8.1332    2.1807   -0.7938 C   0  0  0  0  0  0  0  0  0  0  0  0
    6.8747    1.8029   -0.5619 N   0  0  0  0  0  0  0  0  0  0  0  0
    6.0658   -0.9106    1.7390 N   0  0  0  0  0  0  0  0  0  0  0  0
    4.9628   -1.5079    2.1966 C   0  0  0  0  0  0  0  0  0  0  0  0
    3.7008   -1.2087    1.8588 N   0  0  0  0  0  0  0  0  0  0  0  0
    1.9524    0.0054   -0.8571 C   0  0  0  0  0  0  0  0  0  0  0  0
    0.5530    0.5320   -1.2224 C   0  0  0  0  0  0  0  0  0  0  0  0
   -4.8120    0.5096   -1.0378 C   0  0  0  0  0  0  0  0  0  0  0  0
   -6.2932    1.8289   -2.8384 H   0  0  0  0  0  0  0  0  0  0  0  0
   -7.0325    2.5124   -1.3690 H   0  0  0  0  0  0  0  0  0  0  0  0
   -7.8659    1.2431   -2.2990 H   0  0  0  0  0  0  0  0  0  0  0  0
   -8.0552   -0.2890   -0.3740 H   0  0  0  0  0  0  0  0  0  0  0  0
   -7.2580   -1.8271    2.3228 H   0  0  0  0  0  0  0  0  0  0  0  0
   -6.6739   -3.2131    1.3681 H   0  0  0  0  0  0  0  0  0  0  0  0
   -8.1491   -2.3790    0.8866 H   0  0  0  0  0  0  0  0  0  0  0  0
   -4.4569   -2.0508    1.1693 H   0  0  0  0  0  0  0  0  0  0  0  0
   -2.4233   -1.2674    0.4771 H   0  0  0  0  0  0  0  0  0  0  0  0
   -0.9861   -0.5168    1.6301 H   0  0  0  0  0  0  0  0  0  0  0  0
   -0.3099    1.0814    1.3385 H   0  0  0  0  0  0  0  0  0  0  0  0
    1.3325   -0.3418    2.4781 H   0  0  0  0  0  0  0  0  0  0  0  0
    1.1747   -1.6029    1.2282 H   0  0  0  0  0  0  0  0  0  0  0  0
    4.4415    1.3119   -0.2271 H   0  0  0  0  0  0  0  0  0  0  0  0
    8.5733   -0.2388    1.3544 H   0  0  0  0  0  0  0  0  0  0  0  0
   10.1450    1.5236   -0.0616 H   0  0  0  0  0  0  0  0  0  0  0  0
    8.3183    2.9888   -1.4914 H   0  0  0  0  0  0  0  0  0  0  0  0
    5.0991   -2.3123    2.9114 H   0  0  0  0  0  0  0  0  0  0  0  0
    2.6844    0.5647   -1.4507 H   0  0  0  0  0  0  0  0  0  0  0  0
    2.0277   -1.0530   -1.1422 H   0  0  0  0  0  0  0  0  0  0  0  0
    0.3536    0.3195   -2.2789 H   0  0  0  0  0  0  0  0  0  0  0  0
    0.5152    1.6211   -1.0902 H   0  0  0  0  0  0  0  0  0  0  0  0
   -4.2405    1.2316   -1.6146 H   0  0  0  0  0  0  0  0  0  0  0  0
  1  2  1  0
  2  3  2  0
  3  4  1  0
  4  5  1  0
  4  6  2  0
  6  7  1  0
  7  8  1  0
  8  9  1  0
  9 10  2  0
  9 11  1  0
 11 12  1  0
 12 13  1  0
 13 14  1  0
 14 15  1  0
 15 16  2  0
 16 17  1  0
 17 18  1  0
 18 19  1  0
 19 20  2  0
 20 21  1  0
 21 22  2  0
 17 23  2  0
 23 24  1  0
 24 25  2  0
 14 26  1  0
 26 27  1  0
  7 28  2  0
 28  2  1  0
 27 11  1  0
 25 15  1  0
 22 18  1  0
  1 29  1  0
  1 30  1  0
  1 31  1  0
  3 32  1  0
  5 33  1  0
  5 34  1  0
  5 35  1  0
  6 36  1  0
  8 37  1  0
 12 38  1  0
 12 39  1  0
 13 40  1  0
 13 41  1  0
 16 42  1  0
 19 43  1  0
 20 44  1  0
 21 45  1  0
 24 46  1  0
 26 47  1  0
 26 48  1  0
 27 49  1  0
 27 50  1  0
 28 51  1  0
M  END
$$$$
