
     RDKit          3D

 55 58  0  0  0  0  0  0  0  0999 V2000
   -0.4708   -4.9216   -1.5246 C   0  0  0  0  0  0  0  0  0  0  0  0
   -0.6982   -3.4207   -1.4522 C   0  0  0  0  0  0  0  0  0  0  0  0
   -0.8220   -2.9410   -0.0035 C   0  0  0  0  0  0  0  0  0  0  0  0
   -1.0089   -1.4928    0.0670 N   0  0  0  0  0  0  0  0  0  0  0  0
    0.0894   -0.6263    0.0753 C   0  0  0  0  0  0  0  0  0  0  0  0
    1.3624   -1.1820    0.1002 N   0  0  0  0  0  0  0  0  0  0  0  0
    2.0125   -1.1794    1.4417 C   0  0  0  0  0  0  0  0  0  0  0  0
    3.5428   -1.2667    1.3680 C   0  0  0  0  0  0  0  0  0  0  0  0
    4.1198   -0.1807    0.5670 N   0  0  0  0  0  0  0  0  0  0  0  0
    5.3730    0.2986    0.9013 C   0  0  0  0  0  0  0  0  0  0  0  0
    6.0338   -0.1984    1.8155 O   0  0  0  0  0  0  0  0  0  0  0  0
    5.9333    1.4796    0.1290 C   0  0  0  0  0  0  0  0  0  0  0  0
    5.3053    2.7920    0.5583 C   0  0  0  0  0  0  0  0  0  0  0  0
    3.2895    0.2936   -0.5486 C   0  0  0  0  0  0  0  0  0  0  0  0
    2.2690   -0.7629   -0.9976 C   0  0  0  0  0  0  0  0  0  0  0  0
   -0.0246    0.6750    0.0590 N   0  0  0  0  0  0  0  0  0  0  0  0
   -1.2875    1.1565    0.0500 C   0  0  0  0  0  0  0  0  0  0  0  0
   -1.5939    2.8353    0.0842 S   0  0  0  0  0  0  0  0  0  0  0  0
   -3.2770    2.5871    0.0617 C   0  0  0  0  0  0  0  0  0  0  0  0
   -3.6187    1.2480    0.0079 C   0  0  0  0  0  0  0  0  0  0  0  0
   -2.4481    0.4207    0.0204 C   0  0  0  0  0  0  0  0  0  0  0  0
   -2.3276   -1.0235    0.0056 C   0  0  0  0  0  0  0  0  0  0  0  0
   -3.3110   -1.7574   -0.0637 O   0  0  0  0  0  0  0  0  0  0  0  0
   -5.0493    0.7948   -0.0154 C   0  0  0  0  0  0  0  0  0  0  0  0
   -6.0096    1.9465   -0.3576 C   0  0  0  0  0  0  0  0  0  0  0  0
   -5.6590    3.2290    0.4104 C   0  0  0  0  0  0  0  0  0  0  0  0
   -4.2463    3.7284    0.0673 C   0  0  0  0  0  0  0  0  0  0  0  0
   -0.3849   -5.2422   -2.5678 H   0  0  0  0  0  0  0  0  0  0  0  0
   -1.3038   -5.4667   -1.0685 H   0  0  0  0  0  0  0  0  0  0  0  0
    0.4514   -5.2039   -1.0055 H   0  0  0  0  0  0  0  0  0  0  0  0
   -1.6063   -3.1649   -2.0105 H   0  0  0  0  0  0  0  0  0  0  0  0
    0.1314   -2.9068   -1.9514 H   0  0  0  0  0  0  0  0  0  0  0  0
   -1.6699   -3.4408    0.4788 H   0  0  0  0  0  0  0  0  0  0  0  0
    0.0689   -3.2293    0.5624 H   0  0  0  0  0  0  0  0  0  0  0  0
    1.7429   -0.2609    1.9794 H   0  0  0  0  0  0  0  0  0  0  0  0
    1.6254   -2.0236    2.0228 H   0  0  0  0  0  0  0  0  0  0  0  0
    3.8480   -2.2080    0.8959 H   0  0  0  0  0  0  0  0  0  0  0  0
    3.9596   -1.2561    2.3807 H   0  0  0  0  0  0  0  0  0  0  0  0
    5.8328    1.3211   -0.9468 H   0  0  0  0  0  0  0  0  0  0  0  0
    7.0111    1.5190    0.3247 H   0  0  0  0  0  0  0  0  0  0  0  0
    5.7865    3.6287    0.0421 H   0  0  0  0  0  0  0  0  0  0  0  0
    5.4201    2.9441    1.6376 H   0  0  0  0  0  0  0  0  0  0  0  0
    4.2369    2.8275    0.3317 H   0  0  0  0  0  0  0  0  0  0  0  0
    3.9239    0.5666   -1.3952 H   0  0  0  0  0  0  0  0  0  0  0  0
    2.7709    1.1952   -0.2056 H   0  0  0  0  0  0  0  0  0  0  0  0
    2.7992   -1.6565   -1.3496 H   0  0  0  0  0  0  0  0  0  0  0  0
    1.6940   -0.3879   -1.8532 H   0  0  0  0  0  0  0  0  0  0  0  0
   -5.1861   -0.0109   -0.7466 H   0  0  0  0  0  0  0  0  0  0  0  0
   -5.3033    0.3926    0.9738 H   0  0  0  0  0  0  0  0  0  0  0  0
   -7.0379    1.6435   -0.1294 H   0  0  0  0  0  0  0  0  0  0  0  0
   -5.9680    2.1515   -1.4346 H   0  0  0  0  0  0  0  0  0  0  0  0
   -5.7282    3.0311    1.4881 H   0  0  0  0  0  0  0  0  0  0  0  0
   -6.3905    4.0152    0.1819 H   0  0  0  0  0  0  0  0  0  0  0  0
   -4.2549    4.1936   -0.9257 H   0  0  0  0  0  0  0  0  0  0  0  0
   -3.9476    4.4971    0.7899 H   0  0  0  0  0  0  0  0  0  0  0  0
  1  2  1  0
  2  3  1  0
  3  4  1  0
  4  5  1  0
  5  6  1  0
  6  7  1  0
  7  8  1  0
  8  9  1  0
  9 10  1  0
 10 11  2  0
 10 12  1  0
 12 13  1  0
  9 14  1  0
 14 15  1  0
  5 16  2  0
 16 17  1  0
 17 18  1  0
 18 19  1  0
 19 20  2  0
 20 21  1  0
 21 22  1  0
 22 23  2  0
 20 24  1  0
 24 25  1  0
 25 26  1  0
 26 27  1  0
 22  4  1  0
 15  6  1  0
 21 17  2  0
 27 19  1  0
  1 28  1  0
  1 29  1  0
  1 30  1  0
  2 31  1  0
  2 32  1  0
  3 33  1  0
  3 34  1  0
  7 35  1  0
  7 36  1  0
  8 37  1  0
  8 38  1  0
 12 39  1  0
 12 40  1  0
 13 41  1  0
 13 42  1  0
 13 43  1  0
 14 44  1  0
 14 45  1  0
 15 46  1  0
 15 47  1  0
 24 48  1  0
 24 49  1  0
 25 50  1  0
 25 51  1  0
 26 52  1  0
 26 53  1  0
 27 54  1  0
 27 55  1  0
M  END
$$$$
