
     RDKit          3D

 43 45  0  0  0  0  0  0  0  0999 V2000
   -4.5224   -1.4140    1.4503 C   0  0  0  0  0  0  0  0  0  0  0  0
   -4.9674   -0.0550    0.9864 C   0  0  0  0  0  0  0  0  0  0  0  0
   -6.1861    0.4576    1.4605 C   0  0  0  0  0  0  0  0  0  0  0  0
   -6.6579    1.6998    1.0261 C   0  0  0  0  0  0  0  0  0  0  0  0
   -5.9217    2.4509    0.1109 C   0  0  0  0  0  0  0  0  0  0  0  0
   -4.7008    1.9691   -0.3564 C   0  0  0  0  0  0  0  0  0  0  0  0
   -4.2125    0.7333    0.0941 C   0  0  0  0  0  0  0  0  0  0  0  0
   -2.8814    0.3183   -0.4210 C   0  0  0  0  0  0  0  0  0  0  0  0
   -2.7093    0.2928   -1.6325 O   0  0  0  0  0  0  0  0  0  0  0  0
   -1.9516    0.0629    0.5692 N   0  0  0  0  0  0  0  0  0  0  0  0
   -0.6104   -0.3353    0.4016 C   0  0  0  0  0  0  0  0  0  0  0  0
    0.1624   -0.4823    1.5624 C   0  0  0  0  0  0  0  0  0  0  0  0
    1.5066   -0.8572    1.4802 C   0  0  0  0  0  0  0  0  0  0  0  0
    2.0902   -1.0779    0.2305 C   0  0  0  0  0  0  0  0  0  0  0  0
    3.5167   -1.4668    0.1698 C   0  0  0  0  0  0  0  0  0  0  0  0
    3.8896   -2.4188    0.8480 O   0  0  0  0  0  0  0  0  0  0  0  0
    4.3678   -0.7206   -0.6245 N   0  0  0  0  0  0  0  0  0  0  0  0
    5.7779   -1.0564   -0.7101 C   0  0  0  0  0  0  0  0  0  0  0  0
    6.3395   -0.0623   -1.7163 C   0  0  0  0  0  0  0  0  0  0  0  0
    5.4810    1.1739   -1.4732 C   0  0  0  0  0  0  0  0  0  0  0  0
    4.1000    0.5822   -1.2238 C   0  0  0  0  0  0  0  0  0  0  0  0
    1.3208   -0.9688   -0.9293 C   0  0  0  0  0  0  0  0  0  0  0  0
   -0.0240   -0.5919   -0.8417 C   0  0  0  0  0  0  0  0  0  0  0  0
   -3.8276   -1.3197    2.2902 H   0  0  0  0  0  0  0  0  0  0  0  0
   -5.3773   -2.0144    1.7816 H   0  0  0  0  0  0  0  0  0  0  0  0
   -4.0435   -1.9717    0.6390 H   0  0  0  0  0  0  0  0  0  0  0  0
   -6.7888   -0.1166    2.1633 H   0  0  0  0  0  0  0  0  0  0  0  0
   -7.6099    2.0756    1.3939 H   0  0  0  0  0  0  0  0  0  0  0  0
   -6.2971    3.4098   -0.2388 H   0  0  0  0  0  0  0  0  0  0  0  0
   -4.1243    2.5562   -1.0706 H   0  0  0  0  0  0  0  0  0  0  0  0
   -2.2512    0.2293    1.5218 H   0  0  0  0  0  0  0  0  0  0  0  0
   -0.2678   -0.3106    2.5461 H   0  0  0  0  0  0  0  0  0  0  0  0
    2.0996   -0.9705    2.3852 H   0  0  0  0  0  0  0  0  0  0  0  0
    6.2221   -0.9141    0.2808 H   0  0  0  0  0  0  0  0  0  0  0  0
    5.9113   -2.0987   -1.0142 H   0  0  0  0  0  0  0  0  0  0  0  0
    6.1822   -0.4308   -2.7382 H   0  0  0  0  0  0  0  0  0  0  0  0
    7.4074    0.1242   -1.5764 H   0  0  0  0  0  0  0  0  0  0  0  0
    5.8313    1.6952   -0.5734 H   0  0  0  0  0  0  0  0  0  0  0  0
    5.4946    1.8785   -2.3084 H   0  0  0  0  0  0  0  0  0  0  0  0
    3.4889    1.2105   -0.5686 H   0  0  0  0  0  0  0  0  0  0  0  0
    3.5750    0.4212   -2.1715 H   0  0  0  0  0  0  0  0  0  0  0  0
    1.7555   -1.1784   -1.9034 H   0  0  0  0  0  0  0  0  0  0  0  0
   -0.5878   -0.5082   -1.7659 H   0  0  0  0  0  0  0  0  0  0  0  0
  1  2  1  0
  2  3  2  0
  3  4  1  0
  4  5  2  0
  5  6  1  0
  6  7  2  0
  7  8  1  0
  8  9  2  0
  8 10  1  0
 10 11  1  0
 11 12  2  0
 12 13  1  0
 13 14  2  0
 14 15  1  0
 15 16  2  0
 15 17  1  0
 17 18  1  0
 18 19  1  0
 19 20  1  0
 20 21  1  0
 14 22  1  0
 22 23  2  0
  7  2  1  0
 23 11  1  0
 21 17  1  0
  1 24  1  0
  1 25  1  0
  1 26  1  0
  3 27  1  0
  4 28  1  0
  5 29  1  0
  6 30  1  0
 10 31  1  0
 12 32  1  0
 13 33  1  0
 18 34  1  0
 18 35  1  0
 19 36  1  0
 19 37  1  0
 20 38  1  0
 20 39  1  0
 21 40  1  0
 21 41  1  0
 22 42  1  0
 23 43  1  0
M  END
$$$$
