
     RDKit          3D

 41 42  0  0  0  0  0  0  0  0999 V2000
   -6.2093   -0.0751    0.0445 C   0  0  0  0  0  0  0  0  0  0  0  0
   -5.1069    0.8880    0.0352 N   0  0  0  0  0  0  0  0  0  0  0  0
   -5.0048    1.6984   -1.1831 C   0  0  0  0  0  0  0  0  0  0  0  0
   -3.6910    0.5737    0.8837 S   0  0  0  0  0  6  0  0  0  0  0  0
   -4.0055   -0.2449    2.0331 O   0  0  0  0  0  0  0  0  0  0  0  0
   -3.0020    1.8373    1.0318 O   0  0  0  0  0  0  0  0  0  0  0  0
   -2.8168   -0.3823   -0.2381 N   0  0  0  0  0  0  0  0  0  0  0  0
   -3.3808   -1.7212   -0.5163 C   0  0  0  0  0  0  0  0  0  0  0  0
   -1.3990   -0.3812    0.0281 C   0  0  0  0  0  0  0  0  0  0  0  0
   -0.8386   -1.1524    1.0502 C   0  0  0  0  0  0  0  0  0  0  0  0
    0.5366   -1.0960    1.2922 C   0  0  0  0  0  0  0  0  0  0  0  0
    1.3579   -0.2641    0.5191 C   0  0  0  0  0  0  0  0  0  0  0  0
    2.8206   -0.2390    0.8155 C   0  0  0  0  0  0  0  0  0  0  0  0
    3.1897   -0.4639    1.9613 O   0  0  0  0  0  0  0  0  0  0  0  0
    3.6404   -0.0005   -0.2725 N   0  0  0  0  0  0  0  0  0  0  0  0
    5.0484    0.1030   -0.2554 C   0  0  0  0  0  0  0  0  0  0  0  0
    5.7009    0.2763   -1.4790 C   0  0  0  0  0  0  0  0  0  0  0  0
    7.0897    0.3898   -1.5202 C   0  0  0  0  0  0  0  0  0  0  0  0
    7.7893    0.3283   -0.3281 C   0  0  0  0  0  0  0  0  0  0  0  0
    7.2004    0.1653    0.8732 N   0  0  0  0  0  0  0  0  0  0  0  0
    5.8452    0.0568    0.8855 C   0  0  0  0  0  0  0  0  0  0  0  0
    0.7857    0.5396   -0.4764 C   0  0  0  0  0  0  0  0  0  0  0  0
   -0.5900    0.4775   -0.7193 C   0  0  0  0  0  0  0  0  0  0  0  0
   -6.2819   -0.6020   -0.9111 H   0  0  0  0  0  0  0  0  0  0  0  0
   -7.1493    0.4595    0.2156 H   0  0  0  0  0  0  0  0  0  0  0  0
   -6.1118   -0.8166    0.8408 H   0  0  0  0  0  0  0  0  0  0  0  0
   -4.3517    2.5626   -1.0352 H   0  0  0  0  0  0  0  0  0  0  0  0
   -4.6271    1.0978   -2.0157 H   0  0  0  0  0  0  0  0  0  0  0  0
   -5.9910    2.0884   -1.4557 H   0  0  0  0  0  0  0  0  0  0  0  0
   -3.6427   -2.2572    0.4004 H   0  0  0  0  0  0  0  0  0  0  0  0
   -2.6616   -2.3348   -1.0713 H   0  0  0  0  0  0  0  0  0  0  0  0
   -4.2616   -1.6312   -1.1549 H   0  0  0  0  0  0  0  0  0  0  0  0
   -1.4622   -1.7855    1.6764 H   0  0  0  0  0  0  0  0  0  0  0  0
    0.9653   -1.6951    2.0940 H   0  0  0  0  0  0  0  0  0  0  0  0
    3.2072    0.0414   -1.1847 H   0  0  0  0  0  0  0  0  0  0  0  0
    5.1442    0.3242   -2.4101 H   0  0  0  0  0  0  0  0  0  0  0  0
    7.6132    0.5233   -2.4601 H   0  0  0  0  0  0  0  0  0  0  0  0
    8.8721    0.4114   -0.3059 H   0  0  0  0  0  0  0  0  0  0  0  0
    5.4320   -0.0662    1.8810 H   0  0  0  0  0  0  0  0  0  0  0  0
    1.3819    1.2488   -1.0433 H   0  0  0  0  0  0  0  0  0  0  0  0
   -1.0350    1.1174   -1.4770 H   0  0  0  0  0  0  0  0  0  0  0  0
  1  2  1  0
  2  3  1  0
  2  4  1  0
  4  5  2  0
  4  6  2  0
  4  7  1  0
  7  8  1  0
  7  9  1  0
  9 10  2  0
 10 11  1  0
 11 12  2  0
 12 13  1  0
 13 14  2  0
 13 15  1  0
 15 16  1  0
 16 17  2  0
 17 18  1  0
 18 19  2  0
 19 20  1  0
 20 21  2  0
 12 22  1  0
 22 23  2  0
 23  9  1  0
 21 16  1  0
  1 24  1  0
  1 25  1  0
  1 26  1  0
  3 27  1  0
  3 28  1  0
  3 29  1  0
  8 30  1  0
  8 31  1  0
  8 32  1  0
 10 33  1  0
 11 34  1  0
 15 35  1  0
 17 36  1  0
 18 37  1  0
 19 38  1  0
 21 39  1  0
 22 40  1  0
 23 41  1  0
M  END
$$$$
