
     RDKit          3D

 54 56  0  0  0  0  0  0  0  0999 V2000
   -2.1676   -1.3331    3.3949 C   0  0  0  0  0  0  0  0  0  0  0  0
   -1.3689   -0.7219    2.2765 C   0  0  0  0  0  0  0  0  0  0  0  0
   -0.1179   -1.2833    1.9679 C   0  0  0  0  0  0  0  0  0  0  0  0
    0.6822   -0.7508    0.9538 C   0  0  0  0  0  0  0  0  0  0  0  0
    0.2462    0.3607    0.2269 C   0  0  0  0  0  0  0  0  0  0  0  0
    1.0650    0.9535   -0.8667 C   0  0  0  0  0  0  0  0  0  0  0  0
    0.9411    2.1368   -1.1563 O   0  0  0  0  0  0  0  0  0  0  0  0
    1.9067    0.0881   -1.5366 N   0  0  0  0  0  0  0  0  0  0  0  0
    2.6339    0.5320   -2.7109 C   0  0  0  0  0  0  0  0  0  0  0  0
    3.8296   -0.3690   -3.0842 C   0  0  0  0  0  0  0  0  0  0  0  0
    5.0148   -0.3723   -2.2177 N   0  0  0  0  0  0  0  0  0  0  0  0
    4.8684   -1.1361   -0.9708 C   0  0  0  0  0  0  0  0  0  0  0  0
    6.0170   -0.8297    0.0006 C   0  0  0  0  0  0  0  0  0  0  0  0
    6.0273    0.5381    0.4303 O   0  0  0  0  0  0  0  0  0  0  0  0
    5.4623    1.4409   -0.5321 C   0  0  0  0  0  0  0  0  0  0  0  0
    5.6138    0.9539   -1.9816 C   0  0  0  0  0  0  0  0  0  0  0  0
   -0.9799    0.9552    0.5428 C   0  0  0  0  0  0  0  0  0  0  0  0
   -1.7874    0.4141    1.5551 C   0  0  0  0  0  0  0  0  0  0  0  0
   -3.3396    1.2268    1.8992 S   0  0  0  0  0  6  0  0  0  0  0  0
   -3.4928    1.3137    3.3344 O   0  0  0  0  0  0  0  0  0  0  0  0
   -3.4400    2.4126    1.0755 O   0  0  0  0  0  0  0  0  0  0  0  0
   -4.4895    0.1124    1.3016 N   0  0  0  0  0  0  0  0  0  0  0  0
   -5.9031    0.4410    1.6951 C   0  0  0  0  0  0  0  0  0  0  0  0
   -6.6924    0.9962    0.5058 C   0  0  0  0  0  0  0  0  0  0  0  0
   -6.8001    0.0662   -0.5809 O   0  0  0  0  0  0  0  0  0  0  0  0
   -5.6752   -0.8168   -0.6832 C   0  0  0  0  0  0  0  0  0  0  0  0
   -4.3750   -0.1960   -0.1629 C   0  0  0  0  0  0  0  0  0  0  0  0
   -3.2144   -1.4699    3.1102 H   0  0  0  0  0  0  0  0  0  0  0  0
   -1.7869   -2.3283    3.6524 H   0  0  0  0  0  0  0  0  0  0  0  0
   -2.1014   -0.7109    4.2927 H   0  0  0  0  0  0  0  0  0  0  0  0
    0.2502   -2.1411    2.5300 H   0  0  0  0  0  0  0  0  0  0  0  0
    1.6564   -1.1956    0.7706 H   0  0  0  0  0  0  0  0  0  0  0  0
    1.7380   -0.9045   -1.4465 H   0  0  0  0  0  0  0  0  0  0  0  0
    1.9150    0.5258   -3.5384 H   0  0  0  0  0  0  0  0  0  0  0  0
    2.9470    1.5720   -2.5743 H   0  0  0  0  0  0  0  0  0  0  0  0
    3.4771   -1.4025   -3.2030 H   0  0  0  0  0  0  0  0  0  0  0  0
    4.1646   -0.0633   -4.0850 H   0  0  0  0  0  0  0  0  0  0  0  0
    3.9340   -0.8921   -0.4606 H   0  0  0  0  0  0  0  0  0  0  0  0
    4.8577   -2.2067   -1.1983 H   0  0  0  0  0  0  0  0  0  0  0  0
    5.9281   -1.4519    0.8978 H   0  0  0  0  0  0  0  0  0  0  0  0
    6.9872   -1.0548   -0.4556 H   0  0  0  0  0  0  0  0  0  0  0  0
    5.9661    2.4055   -0.4081 H   0  0  0  0  0  0  0  0  0  0  0  0
    4.4079    1.5898   -0.2801 H   0  0  0  0  0  0  0  0  0  0  0  0
    5.2360    1.7080   -2.6802 H   0  0  0  0  0  0  0  0  0  0  0  0
    6.6855    0.8565   -2.1983 H   0  0  0  0  0  0  0  0  0  0  0  0
   -1.2984    1.8416   -0.0051 H   0  0  0  0  0  0  0  0  0  0  0  0
   -5.9351    1.1595    2.5225 H   0  0  0  0  0  0  0  0  0  0  0  0
   -6.3614   -0.4890    2.0531 H   0  0  0  0  0  0  0  0  0  0  0  0
   -7.7083    1.2580    0.8147 H   0  0  0  0  0  0  0  0  0  0  0  0
   -6.2226    1.9080    0.1235 H   0  0  0  0  0  0  0  0  0  0  0  0
   -5.5641   -1.0898   -1.7364 H   0  0  0  0  0  0  0  0  0  0  0  0
   -5.9150   -1.7334   -0.1324 H   0  0  0  0  0  0  0  0  0  0  0  0
   -4.1688    0.7202   -0.7280 H   0  0  0  0  0  0  0  0  0  0  0  0
   -3.5530   -0.9021   -0.3135 H   0  0  0  0  0  0  0  0  0  0  0  0
  1  2  1  0
  2  3  2  0
  3  4  1  0
  4  5  2  0
  5  6  1  0
  6  7  2  0
  6  8  1  0
  8  9  1  0
  9 10  1  0
 10 11  1  0
 11 12  1  0
 12 13  1  0
 13 14  1  0
 14 15  1  0
 15 16  1  0
  5 17  1  0
 17 18  2  0
 18 19  1  0
 19 20  2  0
 19 21  2  0
 19 22  1  0
 22 23  1  0
 23 24  1  0
 24 25  1  0
 25 26  1  0
 26 27  1  0
 18  2  1  0
 27 22  1  0
 16 11  1  0
  1 28  1  0
  1 29  1  0
  1 30  1  0
  3 31  1  0
  4 32  1  0
  8 33  1  0
  9 34  1  0
  9 35  1  0
 10 36  1  0
 10 37  1  0
 12 38  1  0
 12 39  1  0
 13 40  1  0
 13 41  1  0
 15 42  1  0
 15 43  1  0
 16 44  1  0
 16 45  1  0
 17 46  1  0
 23 47  1  0
 23 48  1  0
 24 49  1  0
 24 50  1  0
 26 51  1  0
 26 52  1  0
 27 53  1  0
 27 54  1  0
M  END
$$$$
