
     RDKit          3D

 35 35  0  0  0  0  0  0  0  0999 V2000
   -0.0599    2.5949    0.9787 C   0  0  0  0  0  0  0  0  0  0  0  0
    1.3150    2.3769    1.2844 O   0  0  0  0  0  0  0  0  0  0  0  0
    1.5974    1.0343    1.4784 C   0  0  0  0  0  0  0  0  0  0  0  0
    2.9050    0.7275    1.7607 C   0  0  0  0  0  0  0  0  0  0  0  0
    3.1734   -0.6084    1.9499 C   0  0  0  0  0  0  0  0  0  0  0  0
    4.5643   -1.0662    2.2596 C   0  0  0  0  0  0  0  0  0  0  0  0
    2.2173   -1.5553    1.8685 N   0  0  0  0  0  0  0  0  0  0  0  0
    0.9571   -1.1538    1.6018 C   0  0  0  0  0  0  0  0  0  0  0  0
    0.0543   -2.1418    1.5361 N   0  0  0  0  0  2  0  0  0  0  0  0
   -1.5009   -1.9070    1.3112 S   0  0  0  0  0  6  0  0  0  0  0  0
   -2.1604   -1.0217    2.2742 O   0  0  0  0  0  0  0  0  0  0  0  0
   -2.2463   -3.1431    1.0546 O   0  0  0  0  0  0  0  0  0  0  0  0
   -1.7393   -1.0567   -0.2774 C   0  0  0  0  0  0  0  0  0  0  0  0
   -2.5613    0.0670   -0.3566 C   0  0  0  0  0  0  0  0  0  0  0  0
   -2.7391    0.7005   -1.5882 C   0  0  0  0  0  0  0  0  0  0  0  0
   -2.0895    0.2208   -2.7354 C   0  0  0  0  0  0  0  0  0  0  0  0
   -2.3062    0.8855   -4.0613 C   0  0  0  0  0  0  0  0  0  0  0  0
   -1.2816   -0.9222   -2.6399 C   0  0  0  0  0  0  0  0  0  0  0  0
   -1.1032   -1.5621   -1.4122 C   0  0  0  0  0  0  0  0  0  0  0  0
    0.6173    0.1233    1.3861 N   0  0  0  0  0  0  0  0  0  0  0  0
    0.0000    0.0000    0.0000 K   0  0  0  0  0 15  0  0  0  0  0  0
   -0.2080    3.6744    0.8764 H   0  0  0  0  0  0  0  0  0  0  0  0
   -0.7142    2.2482    1.7863 H   0  0  0  0  0  0  0  0  0  0  0  0
   -0.3257    2.1350    0.0216 H   0  0  0  0  0  0  0  0  0  0  0  0
    3.6635    1.4918    1.8267 H   0  0  0  0  0  0  0  0  0  0  0  0
    4.9193   -0.6024    3.1851 H   0  0  0  0  0  0  0  0  0  0  0  0
    5.2413   -0.8000    1.4418 H   0  0  0  0  0  0  0  0  0  0  0  0
    4.5988   -2.1528    2.3894 H   0  0  0  0  0  0  0  0  0  0  0  0
   -3.0582    0.4397    0.5340 H   0  0  0  0  0  0  0  0  0  0  0  0
   -3.3871    1.5706   -1.6424 H   0  0  0  0  0  0  0  0  0  0  0  0
   -3.1702    0.4422   -4.5658 H   0  0  0  0  0  0  0  0  0  0  0  0
   -2.4817    1.9592   -3.9359 H   0  0  0  0  0  0  0  0  0  0  0  0
   -1.4259    0.7739   -4.7031 H   0  0  0  0  0  0  0  0  0  0  0  0
   -0.7854   -1.3239   -3.5188 H   0  0  0  0  0  0  0  0  0  0  0  0
   -0.4799   -2.4479   -1.3340 H   0  0  0  0  0  0  0  0  0  0  0  0
  1  2  1  0
  2  3  1  0
  3  4  2  0
  4  5  1  0
  5  6  1  0
  5  7  2  0
  7  8  1  0
  8  9  1  0
  9 10  1  0
 10 11  2  0
 10 12  2  0
 10 13  1  0
 13 14  2  0
 14 15  1  0
 15 16  2  0
 16 17  1  0
 16 18  1  0
 18 19  2  0
  8 20  2  0
 20  3  1  0
 19 13  1  0
  1 22  1  0
  1 23  1  0
  1 24  1  0
  4 25  1  0
  6 26  1  0
  6 27  1  0
  6 28  1  0
 14 29  1  0
 15 30  1  0
 17 31  1  0
 17 32  1  0
 17 33  1  0
 18 34  1  0
 19 35  1  0
M  CHG  2   9  -1  21   1
M  END
$$$$
