
     RDKit          3D

 39 41  0  0  0  0  0  0  0  0999 V2000
    5.7218    0.5173    1.4437 C   0  0  0  0  0  0  0  0  0  0  0  0
    4.6907    0.0730    0.4770 C   0  0  0  0  0  0  0  0  0  0  0  0
    4.8643   -0.2960   -0.8746 C   0  0  0  0  0  0  0  0  0  0  0  0
    3.6054   -0.6245   -1.3306 C   0  0  0  0  0  0  0  0  0  0  0  0
    3.1503   -1.0776   -2.6669 C   0  0  0  0  0  0  0  0  0  0  0  0
    2.7722   -0.4492   -0.2563 N   0  0  0  0  0  0  0  0  0  0  0  0
    1.3363   -0.6496   -0.1930 C   0  0  0  0  0  0  0  0  0  0  0  0
    0.5903    0.6678   -0.3508 C   0  0  0  0  0  0  0  0  0  0  0  0
   -0.8767    0.4616   -0.1745 C   0  0  0  0  0  0  0  0  0  0  0  0
   -1.6861   -0.0075   -1.1021 N   0  0  0  0  0  0  0  0  0  0  0  0
   -2.9332   -0.0369   -0.5295 C   0  0  0  0  0  0  0  0  0  0  0  0
   -4.1587   -0.4382   -1.0850 C   0  0  0  0  0  0  0  0  0  0  0  0
   -5.3140   -0.4196   -0.2931 C   0  0  0  0  0  0  0  0  0  0  0  0
   -6.5613   -0.7103   -0.8664 N   0  0  0  0  0  0  0  0  0  0  0  0
   -5.2472    0.0992    1.0043 C   0  0  0  0  0  0  0  0  0  0  0  0
   -4.0361    0.5093    1.5806 C   0  0  0  0  0  0  0  0  0  0  0  0
   -2.8898    0.4186    0.7842 C   0  0  0  0  0  0  0  0  0  0  0  0
   -1.5645    0.7206    0.9921 N   0  0  0  0  0  0  0  0  0  0  0  0
   -0.9880    1.2236    2.2165 C   0  0  0  0  0  0  0  0  0  0  0  0
    3.4090   -0.0142    0.8496 N   0  0  0  0  0  0  0  0  0  0  0  0
    5.7628   -0.1621    2.3011 H   0  0  0  0  0  0  0  0  0  0  0  0
    6.7137    0.5388    0.9811 H   0  0  0  0  0  0  0  0  0  0  0  0
    5.4970    1.5244    1.8093 H   0  0  0  0  0  0  0  0  0  0  0  0
    5.7847   -0.3167   -1.4414 H   0  0  0  0  0  0  0  0  0  0  0  0
    3.9728   -1.0496   -3.3890 H   0  0  0  0  0  0  0  0  0  0  0  0
    2.3507   -0.4334   -3.0463 H   0  0  0  0  0  0  0  0  0  0  0  0
    2.7795   -2.1063   -2.6199 H   0  0  0  0  0  0  0  0  0  0  0  0
    1.0507   -1.3678   -0.9693 H   0  0  0  0  0  0  0  0  0  0  0  0
    1.1198   -1.1207    0.7740 H   0  0  0  0  0  0  0  0  0  0  0  0
    0.9668    1.4194    0.3525 H   0  0  0  0  0  0  0  0  0  0  0  0
    0.7715    1.0787   -1.3521 H   0  0  0  0  0  0  0  0  0  0  0  0
   -4.1870   -0.7616   -2.1186 H   0  0  0  0  0  0  0  0  0  0  0  0
   -6.5060   -1.3447   -1.6576 H   0  0  0  0  0  0  0  0  0  0  0  0
   -7.2665   -0.9923   -0.1934 H   0  0  0  0  0  0  0  0  0  0  0  0
   -6.1570    0.1913    1.5937 H   0  0  0  0  0  0  0  0  0  0  0  0
   -4.0087    0.8938    2.5937 H   0  0  0  0  0  0  0  0  0  0  0  0
   -0.1002    0.6331    2.4570 H   0  0  0  0  0  0  0  0  0  0  0  0
   -1.7050    1.1351    3.0351 H   0  0  0  0  0  0  0  0  0  0  0  0
   -0.7241    2.2732    2.0645 H   0  0  0  0  0  0  0  0  0  0  0  0
  1  2  1  0
  2  3  1  0
  3  4  2  0
  4  5  1  0
  4  6  1  0
  6  7  1  0
  7  8  1  0
  8  9  1  0
  9 10  2  0
 10 11  1  0
 11 12  2  0
 12 13  1  0
 13 14  1  0
 13 15  2  0
 15 16  1  0
 16 17  2  0
 17 18  1  0
 18 19  1  0
  6 20  1  0
 20  2  2  0
 18  9  1  0
 17 11  1  0
  1 21  1  0
  1 22  1  0
  1 23  1  0
  3 24  1  0
  5 25  1  0
  5 26  1  0
  5 27  1  0
  7 28  1  0
  7 29  1  0
  8 30  1  0
  8 31  1  0
 12 32  1  0
 14 33  1  0
 14 34  1  0
 15 35  1  0
 16 36  1  0
 19 37  1  0
 19 38  1  0
 19 39  1  0
M  END
$$$$
