
     RDKit          3D

 50 52  0  0  0  0  0  0  0  0999 V2000
    1.9203   -2.5795   -2.0295 C   0  0  0  0  0  0  0  0  0  0  0  0
    1.1741   -2.1179   -0.7873 C   0  0  0  0  0  0  0  0  0  0  0  0
    0.5050   -0.8196   -1.0706 N   0  0  0  0  0  0  0  0  0  0  0  0
   -0.8727   -0.9767   -1.6130 C   0  0  0  0  0  0  0  0  0  0  0  0
   -1.9401   -1.2982   -0.5770 C   0  0  0  0  0  0  0  0  0  0  0  0
   -2.2420   -2.4557   -0.2883 O   0  0  0  0  0  0  0  0  0  0  0  0
   -2.5196   -0.2000    0.0156 N   0  0  0  0  0  0  0  0  0  0  0  0
   -3.5746   -0.3199    1.0060 C   0  0  0  0  0  0  0  0  0  0  0  0
   -4.9665   -0.2814    0.3567 C   0  0  0  0  0  0  0  0  0  0  0  0
   -6.0869   -0.6169    1.3313 C   0  0  0  0  0  0  0  0  0  0  0  0
   -7.2527    0.1465    0.7423 C   0  0  0  0  0  0  0  0  0  0  0  0
   -6.5786    1.4205    0.2716 C   0  0  0  0  0  0  0  0  0  0  0  0
   -5.2478    1.0551   -0.1353 O   0  0  0  0  0  0  0  0  0  0  0  0
    0.6542    0.3787    0.1304 S   0  0  0  0  0  6  0  0  0  0  0  0
   -0.1049    1.5348   -0.3034 O   0  0  0  0  0  0  0  0  0  0  0  0
    0.4107   -0.2388    1.4157 O   0  0  0  0  0  0  0  0  0  0  0  0
    2.3749    0.8061    0.0278 C   0  0  0  0  0  0  0  0  0  0  0  0
    2.8512    1.4233   -1.1312 C   0  0  0  0  0  0  0  0  0  0  0  0
    4.2017    1.7658   -1.2192 C   0  0  0  0  0  0  0  0  0  0  0  0
    5.0793    1.5054   -0.1522 C   0  0  0  0  0  0  0  0  0  0  0  0
    6.4394    1.8464   -0.2260 C   0  0  0  0  0  0  0  0  0  0  0  0
    7.2991    1.5858    0.8437 C   0  0  0  0  0  0  0  0  0  0  0  0
    6.8084    0.9873    2.0017 C   0  0  0  0  0  0  0  0  0  0  0  0
    5.4589    0.6424    2.0916 C   0  0  0  0  0  0  0  0  0  0  0  0
    4.5828    0.8925    1.0254 C   0  0  0  0  0  0  0  0  0  0  0  0
    3.2253    0.5490    1.1064 C   0  0  0  0  0  0  0  0  0  0  0  0
    2.4329   -3.5293   -1.8371 H   0  0  0  0  0  0  0  0  0  0  0  0
    1.2399   -2.7270   -2.8764 H   0  0  0  0  0  0  0  0  0  0  0  0
    2.6711   -1.8404   -2.3303 H   0  0  0  0  0  0  0  0  0  0  0  0
    0.4458   -2.8752   -0.4793 H   0  0  0  0  0  0  0  0  0  0  0  0
    1.8987   -2.0225    0.0285 H   0  0  0  0  0  0  0  0  0  0  0  0
   -1.1506   -0.0685   -2.1596 H   0  0  0  0  0  0  0  0  0  0  0  0
   -0.8890   -1.7760   -2.3639 H   0  0  0  0  0  0  0  0  0  0  0  0
   -2.2376    0.7379   -0.2631 H   0  0  0  0  0  0  0  0  0  0  0  0
   -3.4446    0.5228    1.6988 H   0  0  0  0  0  0  0  0  0  0  0  0
   -3.4375   -1.2576    1.5598 H   0  0  0  0  0  0  0  0  0  0  0  0
   -5.0105   -0.9577   -0.5090 H   0  0  0  0  0  0  0  0  0  0  0  0
   -5.8630   -0.2275    2.3346 H   0  0  0  0  0  0  0  0  0  0  0  0
   -6.2694   -1.6963    1.4131 H   0  0  0  0  0  0  0  0  0  0  0  0
   -7.6648   -0.4045   -0.1139 H   0  0  0  0  0  0  0  0  0  0  0  0
   -8.0630    0.3293    1.4540 H   0  0  0  0  0  0  0  0  0  0  0  0
   -7.1094    1.8963   -0.5597 H   0  0  0  0  0  0  0  0  0  0  0  0
   -6.4866    2.1476    1.0888 H   0  0  0  0  0  0  0  0  0  0  0  0
    2.1811    1.6362   -1.9597 H   0  0  0  0  0  0  0  0  0  0  0  0
    4.5663    2.2450   -2.1253 H   0  0  0  0  0  0  0  0  0  0  0  0
    6.8410    2.3207   -1.1202 H   0  0  0  0  0  0  0  0  0  0  0  0
    8.3497    1.8576    0.7746 H   0  0  0  0  0  0  0  0  0  0  0  0
    7.4736    0.7921    2.8398 H   0  0  0  0  0  0  0  0  0  0  0  0
    5.0940    0.1804    3.0074 H   0  0  0  0  0  0  0  0  0  0  0  0
    2.8332    0.0813    2.0081 H   0  0  0  0  0  0  0  0  0  0  0  0
  1  2  1  0
  2  3  1  0
  3  4  1  0
  4  5  1  0
  5  6  2  0
  5  7  1  0
  7  8  1  0
  8  9  1  0
  9 10  1  0
 10 11  1  0
 11 12  1  0
 12 13  1  0
  3 14  1  0
 14 15  2  0
 14 16  2  0
 14 17  1  0
 17 18  2  0
 18 19  1  0
 19 20  2  0
 20 21  1  0
 21 22  2  0
 22 23  1  0
 23 24  2  0
 24 25  1  0
 25 26  2  0
 13  9  1  0
 26 17  1  0
 25 20  1  0
  1 27  1  0
  1 28  1  0
  1 29  1  0
  2 30  1  0
  2 31  1  0
  4 32  1  0
  4 33  1  0
  7 34  1  0
  8 35  1  0
  8 36  1  0
  9 37  1  0
 10 38  1  0
 10 39  1  0
 11 40  1  0
 11 41  1  0
 12 42  1  0
 12 43  1  0
 18 44  1  0
 19 45  1  0
 21 46  1  0
 22 47  1  0
 23 48  1  0
 24 49  1  0
 26 50  1  0
M  END
$$$$
