
     RDKit          3D

 40 41  0  0  0  0  0  0  0  0999 V2000
   -5.1900   -2.1022    0.0935 C   0  0  0  0  0  0  0  0  0  0  0  0
   -4.4139   -0.8722   -0.3750 C   0  0  0  0  0  0  0  0  0  0  0  0
   -2.8835   -1.1113   -0.2359 C   0  0  0  0  0  0  0  0  0  0  0  0
   -2.1079    0.0776   -0.6207 N   0  0  0  0  0  0  0  0  0  0  0  0
   -0.6545   -0.1198   -0.5947 C   0  0  0  0  0  0  0  0  0  0  0  0
   -0.0214   -0.4209    0.7722 C   0  0  0  0  0  0  0  0  0  0  0  0
    1.4876   -0.6425    0.6559 C   0  0  0  0  0  0  0  0  0  0  0  0
    2.1000    0.5692    0.2167 O   0  0  0  0  0  0  0  0  0  0  0  0
    3.4543    0.5573    0.0350 C   0  0  0  0  0  0  0  0  0  0  0  0
    3.9883    1.7602   -0.4359 C   0  0  0  0  0  0  0  0  0  0  0  0
    5.3604    1.8909   -0.6663 C   0  0  0  0  0  0  0  0  0  0  0  0
    6.2128    0.8114   -0.4243 C   0  0  0  0  0  0  0  0  0  0  0  0
    7.6217    0.9372   -0.6575 C   0  0  0  0  0  0  0  0  0  0  0  0
    8.7628    1.0358   -0.8449 N   0  0  0  0  0  0  0  0  0  0  0  0
    5.6828   -0.3935    0.0480 C   0  0  0  0  0  0  0  0  0  0  0  0
    4.3071   -0.5203    0.2774 C   0  0  0  0  0  0  0  0  0  0  0  0
   -2.5573    1.2627    0.1245 C   0  0  0  0  0  0  0  0  0  0  0  0
   -4.0817    1.4793   -0.0106 C   0  0  0  0  0  0  0  0  0  0  0  0
   -4.8716    0.3033    0.3988 N   0  0  0  0  0  0  0  0  0  0  0  0
   -6.2687   -1.9565   -0.0321 H   0  0  0  0  0  0  0  0  0  0  0  0
   -4.9042   -2.9838   -0.4904 H   0  0  0  0  0  0  0  0  0  0  0  0
   -4.9986   -2.3218    1.1499 H   0  0  0  0  0  0  0  0  0  0  0  0
   -4.6542   -0.7070   -1.4338 H   0  0  0  0  0  0  0  0  0  0  0  0
   -2.6023   -1.9540   -0.8793 H   0  0  0  0  0  0  0  0  0  0  0  0
   -2.6620   -1.3998    0.7994 H   0  0  0  0  0  0  0  0  0  0  0  0
   -0.4083   -0.9351   -1.2875 H   0  0  0  0  0  0  0  0  0  0  0  0
   -0.1832    0.7723   -1.0264 H   0  0  0  0  0  0  0  0  0  0  0  0
   -0.2009    0.4166    1.4554 H   0  0  0  0  0  0  0  0  0  0  0  0
   -0.4673   -1.3186    1.2127 H   0  0  0  0  0  0  0  0  0  0  0  0
    1.8764   -0.9163    1.6440 H   0  0  0  0  0  0  0  0  0  0  0  0
    1.6860   -1.4527   -0.0562 H   0  0  0  0  0  0  0  0  0  0  0  0
    3.3278    2.6037   -0.6259 H   0  0  0  0  0  0  0  0  0  0  0  0
    5.7524    2.8372   -1.0337 H   0  0  0  0  0  0  0  0  0  0  0  0
    6.3354   -1.2432    0.2418 H   0  0  0  0  0  0  0  0  0  0  0  0
    3.9374   -1.4717    0.6460 H   0  0  0  0  0  0  0  0  0  0  0  0
   -2.0483    2.1562   -0.2557 H   0  0  0  0  0  0  0  0  0  0  0  0
   -2.3130    1.1708    1.1899 H   0  0  0  0  0  0  0  0  0  0  0  0
   -4.3802    2.3323    0.6091 H   0  0  0  0  0  0  0  0  0  0  0  0
   -4.3321    1.7414   -1.0462 H   0  0  0  0  0  0  0  0  0  0  0  0
   -4.6879    0.1277    1.3862 H   0  0  0  0  0  0  0  0  0  0  0  0
  1  2  1  0
  2  3  1  0
  3  4  1  0
  4  5  1  0
  5  6  1  0
  6  7  1  0
  7  8  1  0
  8  9  1  0
  9 10  2  0
 10 11  1  0
 11 12  2  0
 12 13  1  0
 13 14  3  0
 12 15  1  0
 15 16  2  0
  4 17  1  0
 17 18  1  0
 18 19  1  0
 19  2  1  0
 16  9  1  0
  1 20  1  0
  1 21  1  0
  1 22  1  0
  2 23  1  0
  3 24  1  0
  3 25  1  0
  5 26  1  0
  5 27  1  0
  6 28  1  0
  6 29  1  0
  7 30  1  0
  7 31  1  0
 10 32  1  0
 11 33  1  0
 15 34  1  0
 16 35  1  0
 17 36  1  0
 17 37  1  0
 18 38  1  0
 18 39  1  0
 19 40  1  0
M  END
$$$$
