
     RDKit          3D

 43 45  0  0  0  0  0  0  0  0999 V2000
    7.5059    2.4284   -0.3914 C   0  0  0  0  0  0  0  0  0  0  0  0
    6.0663    2.2988   -0.8274 C   0  0  0  0  0  0  0  0  0  0  0  0
    5.5865    3.0845   -1.6393 O   0  0  0  0  0  0  0  0  0  0  0  0
    5.4341    1.2202   -0.2328 N   0  0  0  0  0  0  0  0  0  0  0  0
    4.1057    0.7876   -0.4328 C   0  0  0  0  0  0  0  0  0  0  0  0
    3.6847   -0.3349    0.2982 C   0  0  0  0  0  0  0  0  0  0  0  0
    2.3880   -0.8371    0.1508 C   0  0  0  0  0  0  0  0  0  0  0  0
    1.5017   -0.2096   -0.7292 C   0  0  0  0  0  0  0  0  0  0  0  0
   -0.1305   -0.8841   -0.9545 S   0  0  0  0  0  6  0  0  0  0  0  0
   -0.0395   -2.3095   -0.7095 O   0  0  0  0  0  0  0  0  0  0  0  0
   -0.6583   -0.3577   -2.1971 O   0  0  0  0  0  0  0  0  0  0  0  0
   -0.9612   -0.1011    0.3168 N   0  0  0  0  0  0  0  0  0  0  0  0
   -1.9441   -0.9756    1.0088 C   0  0  0  0  0  0  0  0  0  0  0  0
   -1.6364   -1.9724    1.9017 C   0  0  0  0  0  0  0  0  0  0  0  0
   -2.8819   -2.5202    2.2767 C   0  0  0  0  0  0  0  0  0  0  0  0
   -3.1363   -3.6532    3.2033 C   0  0  0  0  0  0  0  0  0  0  0  0
   -3.9072   -1.8911    1.6873 N   0  0  0  0  0  0  0  0  0  0  0  0
   -3.3246   -0.9384    0.9041 N   0  0  0  0  0  0  0  0  0  0  0  0
   -4.0838   -0.0376    0.0964 C   0  0  0  0  0  0  0  0  0  0  0  0
   -5.4699   -0.1743    0.0499 C   0  0  0  0  0  0  0  0  0  0  0  0
   -6.1972    0.6795   -0.7789 C   0  0  0  0  0  0  0  0  0  0  0  0
   -5.5280    1.6414   -1.5280 C   0  0  0  0  0  0  0  0  0  0  0  0
   -4.1489    1.7227   -1.4126 C   0  0  0  0  0  0  0  0  0  0  0  0
   -3.4093    0.9164   -0.6139 N   0  0  0  0  0  0  0  0  0  0  0  0
    1.9075    0.9032   -1.4691 C   0  0  0  0  0  0  0  0  0  0  0  0
    3.2068    1.4011   -1.3137 C   0  0  0  0  0  0  0  0  0  0  0  0
    7.8081    3.4795   -0.4440 H   0  0  0  0  0  0  0  0  0  0  0  0
    7.6413    2.0915    0.6418 H   0  0  0  0  0  0  0  0  0  0  0  0
    8.1384    1.8321   -1.0560 H   0  0  0  0  0  0  0  0  0  0  0  0
    5.9849    0.6721    0.4196 H   0  0  0  0  0  0  0  0  0  0  0  0
    4.3600   -0.8388    0.9868 H   0  0  0  0  0  0  0  0  0  0  0  0
    2.0797   -1.7152    0.7152 H   0  0  0  0  0  0  0  0  0  0  0  0
   -1.4822    0.6718   -0.1348 H   0  0  0  0  0  0  0  0  0  0  0  0
   -0.6511   -2.2828    2.2193 H   0  0  0  0  0  0  0  0  0  0  0  0
   -2.2020   -4.0276    3.6346 H   0  0  0  0  0  0  0  0  0  0  0  0
   -3.6213   -4.4803    2.6711 H   0  0  0  0  0  0  0  0  0  0  0  0
   -3.7867   -3.3401    4.0272 H   0  0  0  0  0  0  0  0  0  0  0  0
   -5.9850   -0.9394    0.6255 H   0  0  0  0  0  0  0  0  0  0  0  0
   -7.2787    0.5770   -0.8493 H   0  0  0  0  0  0  0  0  0  0  0  0
   -6.0711    2.3061   -2.1949 H   0  0  0  0  0  0  0  0  0  0  0  0
   -3.5846    2.4549   -1.9857 H   0  0  0  0  0  0  0  0  0  0  0  0
    1.2319    1.3855   -2.1717 H   0  0  0  0  0  0  0  0  0  0  0  0
    3.4884    2.2666   -1.9074 H   0  0  0  0  0  0  0  0  0  0  0  0
  1  2  1  0
  2  3  2  0
  2  4  1  0
  4  5  1  0
  5  6  2  0
  6  7  1  0
  7  8  2  0
  8  9  1  0
  9 10  2  0
  9 11  2  0
  9 12  1  0
 12 13  1  0
 13 14  2  0
 14 15  1  0
 15 16  1  0
 15 17  2  0
 17 18  1  0
 18 19  1  0
 19 20  2  0
 20 21  1  0
 21 22  2  0
 22 23  1  0
 23 24  2  0
  8 25  1  0
 25 26  2  0
 26  5  1  0
 18 13  1  0
 24 19  1  0
  1 27  1  0
  1 28  1  0
  1 29  1  0
  4 30  1  0
  6 31  1  0
  7 32  1  0
 12 33  1  0
 14 34  1  0
 16 35  1  0
 16 36  1  0
 16 37  1  0
 20 38  1  0
 21 39  1  0
 22 40  1  0
 23 41  1  0
 25 42  1  0
 26 43  1  0
M  END
$$$$
