
     RDKit          3D

 43 44  0  0  0  0  0  0  0  0999 V2000
    2.3688    3.2860   -0.9043 C   0  0  0  0  0  0  0  0  0  0  0  0
    1.8192    1.9209   -1.2759 C   0  0  0  0  0  0  0  0  0  0  0  0
    1.6816    1.1417   -0.0791 O   0  0  0  0  0  0  0  0  0  0  0  0
    2.3720   -0.0337   -0.1558 C   0  0  0  0  0  0  0  0  0  0  0  0
    3.6995   -0.0303    0.2822 C   0  0  0  0  0  0  0  0  0  0  0  0
    4.4411   -1.2129    0.2796 C   0  0  0  0  0  0  0  0  0  0  0  0
    3.8489   -2.4013   -0.1456 C   0  0  0  0  0  0  0  0  0  0  0  0
    4.7652   -3.8568   -0.1444 Cl  0  0  0  0  0  0  0  0  0  0  0  0
    2.5204   -2.4212   -0.5634 C   0  0  0  0  0  0  0  0  0  0  0  0
    1.7782   -1.2323   -0.5591 C   0  0  0  0  0  0  0  0  0  0  0  0
    0.0855   -1.2889   -1.0882 S   0  0  0  0  0  6  0  0  0  0  0  0
    0.0212   -0.4690   -2.2786 O   0  0  0  0  0  0  0  0  0  0  0  0
   -0.3174   -2.6815   -1.1307 O   0  0  0  0  0  0  0  0  0  0  0  0
   -0.8093   -0.5702    0.1959 N   0  0  0  0  0  0  0  0  0  0  0  0
   -0.5989   -1.2723    1.5054 C   0  0  0  0  0  0  0  0  0  0  0  0
   -1.0694   -0.3805    2.6449 C   0  0  0  0  0  0  0  0  0  0  0  0
   -2.5438   -0.0502    2.4882 C   0  0  0  0  0  0  0  0  0  0  0  0
   -2.8214    0.5437    1.1113 C   0  0  0  0  0  0  0  0  0  0  0  0
   -2.2960   -0.3493   -0.0356 C   0  0  0  0  0  0  0  0  0  0  0  0
   -2.6076    0.2916   -1.4022 C   0  0  0  0  0  0  0  0  0  0  0  0
   -4.0657    0.6860   -1.6081 C   0  0  0  0  0  0  0  0  0  0  0  0
    2.4537    3.9257   -1.7873 H   0  0  0  0  0  0  0  0  0  0  0  0
    1.7175    3.7772   -0.1734 H   0  0  0  0  0  0  0  0  0  0  0  0
    3.3565    3.1935   -0.4401 H   0  0  0  0  0  0  0  0  0  0  0  0
    2.4639    1.4454   -2.0273 H   0  0  0  0  0  0  0  0  0  0  0  0
    0.8219    2.0409   -1.7121 H   0  0  0  0  0  0  0  0  0  0  0  0
    4.1555    0.8929    0.6308 H   0  0  0  0  0  0  0  0  0  0  0  0
    5.4754   -1.2010    0.6146 H   0  0  0  0  0  0  0  0  0  0  0  0
    2.0693   -3.3556   -0.8908 H   0  0  0  0  0  0  0  0  0  0  0  0
   -1.1407   -2.2254    1.5120 H   0  0  0  0  0  0  0  0  0  0  0  0
    0.4594   -1.4877    1.6719 H   0  0  0  0  0  0  0  0  0  0  0  0
   -0.4833    0.5466    2.6582 H   0  0  0  0  0  0  0  0  0  0  0  0
   -0.9040   -0.8841    3.6033 H   0  0  0  0  0  0  0  0  0  0  0  0
   -2.8543    0.6541    3.2680 H   0  0  0  0  0  0  0  0  0  0  0  0
   -3.1418   -0.9603    2.6209 H   0  0  0  0  0  0  0  0  0  0  0  0
   -3.9037    0.6876    1.0271 H   0  0  0  0  0  0  0  0  0  0  0  0
   -2.3555    1.5359    1.0472 H   0  0  0  0  0  0  0  0  0  0  0  0
   -2.8008   -1.3238    0.0153 H   0  0  0  0  0  0  0  0  0  0  0  0
   -2.3757   -0.4265   -2.1957 H   0  0  0  0  0  0  0  0  0  0  0  0
   -1.9764    1.1745   -1.5609 H   0  0  0  0  0  0  0  0  0  0  0  0
   -4.2314    0.9695   -2.6529 H   0  0  0  0  0  0  0  0  0  0  0  0
   -4.7362   -0.1463   -1.3727 H   0  0  0  0  0  0  0  0  0  0  0  0
   -4.3416    1.5472   -0.9926 H   0  0  0  0  0  0  0  0  0  0  0  0
  1  2  1  0
  2  3  1  0
  3  4  1  0
  4  5  2  0
  5  6  1  0
  6  7  2  0
  7  8  1  0
  7  9  1  0
  9 10  2  0
 10 11  1  0
 11 12  2  0
 11 13  2  0
 11 14  1  0
 14 15  1  0
 15 16  1  0
 16 17  1  0
 17 18  1  0
 18 19  1  0
 19 20  1  0
 20 21  1  0
 10  4  1  0
 19 14  1  0
  1 22  1  0
  1 23  1  0
  1 24  1  0
  2 25  1  0
  2 26  1  0
  5 27  1  0
  6 28  1  0
  9 29  1  0
 15 30  1  0
 15 31  1  0
 16 32  1  0
 16 33  1  0
 17 34  1  0
 17 35  1  0
 18 36  1  0
 18 37  1  0
 19 38  1  0
 20 39  1  0
 20 40  1  0
 21 41  1  0
 21 42  1  0
 21 43  1  0
M  END
$$$$
