
     RDKit          3D

 41 43  0  0  0  0  0  0  0  0999 V2000
    3.7106   -1.3743   -1.1736 O   0  0  0  0  0  0  0  0  0  0  0  0
    3.2182   -0.6024   -0.3573 C   0  0  0  0  0  0  0  0  0  0  0  0
    1.8831   -0.5334   -0.0088 N   0  0  0  0  0  0  0  0  0  0  0  0
    0.8266   -1.3484   -0.4680 C   0  0  0  0  0  0  0  0  0  0  0  0
    0.9804   -2.3838   -1.3939 C   0  0  0  0  0  0  0  0  0  0  0  0
   -0.1151   -3.1622   -1.7863 C   0  0  0  0  0  0  0  0  0  0  0  0
   -1.3803   -2.9039   -1.2660 C   0  0  0  0  0  0  0  0  0  0  0  0
   -1.5466   -1.8535   -0.3632 C   0  0  0  0  0  0  0  0  0  0  0  0
   -2.8942   -1.5940    0.1890 C   0  0  0  0  0  0  0  0  0  0  0  0
   -3.4902   -2.5270    0.7204 O   0  0  0  0  0  0  0  0  0  0  0  0
   -3.4223   -0.3131    0.0861 N   0  0  0  0  0  0  0  0  0  0  0  0
   -4.7190   -0.0415    0.7063 C   0  0  0  0  0  0  0  0  0  0  0  0
   -4.9172    1.4605    0.9240 C   0  0  0  0  0  0  0  0  0  0  0  0
   -4.8165    2.2440   -0.2754 O   0  0  0  0  0  0  0  0  0  0  0  0
   -4.0684    1.6146   -1.3240 C   0  0  0  0  0  0  0  0  0  0  0  0
   -2.9215    0.7386   -0.8078 C   0  0  0  0  0  0  0  0  0  0  0  0
   -0.4472   -1.0913    0.0527 C   0  0  0  0  0  0  0  0  0  0  0  0
    4.1224    0.4036    0.2809 C   0  0  0  0  0  0  0  0  0  0  0  0
    5.2054    0.8449   -0.5030 C   0  0  0  0  0  0  0  0  0  0  0  0
    6.1115    1.7876   -0.0136 C   0  0  0  0  0  0  0  0  0  0  0  0
    5.9530    2.2988    1.2700 C   0  0  0  0  0  0  0  0  0  0  0  0
    4.8930    1.8619    2.0647 C   0  0  0  0  0  0  0  0  0  0  0  0
    3.9797    0.9149    1.5794 C   0  0  0  0  0  0  0  0  0  0  0  0
    2.7339    0.4229    2.6732 Cl  0  0  0  0  0  0  0  0  0  0  0  0
    1.6330    0.1560    0.6908 H   0  0  0  0  0  0  0  0  0  0  0  0
    1.9482   -2.6255   -1.8230 H   0  0  0  0  0  0  0  0  0  0  0  0
    0.0279   -3.9759   -2.4935 H   0  0  0  0  0  0  0  0  0  0  0  0
   -2.2293   -3.5169   -1.5586 H   0  0  0  0  0  0  0  0  0  0  0  0
   -4.7968   -0.5824    1.6554 H   0  0  0  0  0  0  0  0  0  0  0  0
   -5.4854   -0.4327    0.0268 H   0  0  0  0  0  0  0  0  0  0  0  0
   -4.1640    1.8415    1.6234 H   0  0  0  0  0  0  0  0  0  0  0  0
   -5.9003    1.6549    1.3639 H   0  0  0  0  0  0  0  0  0  0  0  0
   -3.6776    2.4062   -1.9709 H   0  0  0  0  0  0  0  0  0  0  0  0
   -4.7673    1.0178   -1.9218 H   0  0  0  0  0  0  0  0  0  0  0  0
   -2.3787    0.2990   -1.6494 H   0  0  0  0  0  0  0  0  0  0  0  0
   -2.2297    1.3484   -0.2162 H   0  0  0  0  0  0  0  0  0  0  0  0
   -0.5957   -0.3114    0.7944 H   0  0  0  0  0  0  0  0  0  0  0  0
    5.3464    0.4510   -1.5094 H   0  0  0  0  0  0  0  0  0  0  0  0
    6.9415    2.1165   -0.6351 H   0  0  0  0  0  0  0  0  0  0  0  0
    6.6591    3.0302    1.6566 H   0  0  0  0  0  0  0  0  0  0  0  0
    4.7897    2.2596    3.0725 H   0  0  0  0  0  0  0  0  0  0  0  0
  1  2  2  0
  2  3  1  0
  3  4  1  0
  4  5  2  0
  5  6  1  0
  6  7  2  0
  7  8  1  0
  8  9  1  0
  9 10  2  0
  9 11  1  0
 11 12  1  0
 12 13  1  0
 13 14  1  0
 14 15  1  0
 15 16  1  0
  8 17  2  0
  2 18  1  0
 18 19  2  0
 19 20  1  0
 20 21  2  0
 21 22  1  0
 22 23  2  0
 23 24  1  0
 17  4  1  0
 23 18  1  0
 16 11  1  0
  3 25  1  0
  5 26  1  0
  6 27  1  0
  7 28  1  0
 12 29  1  0
 12 30  1  0
 13 31  1  0
 13 32  1  0
 15 33  1  0
 15 34  1  0
 16 35  1  0
 16 36  1  0
 17 37  1  0
 19 38  1  0
 20 39  1  0
 21 40  1  0
 22 41  1  0
M  END
$$$$
