
     RDKit          3D

 49 50  0  0  0  0  0  0  0  0999 V2000
   -1.4050   -0.2810   -2.2033 C   0  0  0  0  0  0  0  0  0  0  0  0
   -0.9668    0.2874   -0.8501 C   0  0  0  0  0  0  0  0  0  0  0  0
   -0.2236   -0.7730   -0.0276 C   0  0  0  0  0  0  0  0  0  0  0  0
   -0.3289   -1.9803   -0.2371 O   0  0  0  0  0  0  0  0  0  0  0  0
    0.5858   -0.2711    0.9689 N   0  0  0  0  0  0  0  0  0  0  0  0
    1.4036   -1.1269    1.8072 C   0  0  0  0  0  0  0  0  0  0  0  0
    2.7002   -1.6115    1.1227 C   0  0  0  0  0  0  0  0  0  0  0  0
    3.8018   -0.6260    1.1016 N   0  0  0  0  0  0  0  0  0  0  0  0
    5.0561   -1.2282    0.5929 C   0  0  0  0  0  0  0  0  0  0  0  0
    5.3521   -0.8827   -0.8762 C   0  0  0  0  0  0  0  0  0  0  0  0
    5.4686    0.5274   -1.1143 O   0  0  0  0  0  0  0  0  0  0  0  0
    4.7248    1.3164   -0.1757 C   0  0  0  0  0  0  0  0  0  0  0  0
    3.4680    0.5931    0.3344 C   0  0  0  0  0  0  0  0  0  0  0  0
   -2.1250    0.9168   -0.1284 N   0  0  0  0  0  0  0  0  0  0  0  0
   -3.3427    0.1609   -0.0059 C   0  0  0  0  0  0  0  0  0  0  0  0
   -3.4553   -0.9377    0.8497 C   0  0  0  0  0  0  0  0  0  0  0  0
   -4.6567   -1.6491    0.9198 C   0  0  0  0  0  0  0  0  0  0  0  0
   -5.7395   -1.2617    0.1319 C   0  0  0  0  0  0  0  0  0  0  0  0
   -7.2194   -2.1336    0.2217 Cl  0  0  0  0  0  0  0  0  0  0  0  0
   -5.6301   -0.1718   -0.7311 C   0  0  0  0  0  0  0  0  0  0  0  0
   -4.4290    0.5372   -0.8034 C   0  0  0  0  0  0  0  0  0  0  0  0
   -1.7337    1.9201    1.1945 S   0  0  0  0  0  6  0  0  0  0  0  0
   -2.8149    3.3044    0.9061 C   0  0  0  0  0  0  0  0  0  0  0  0
   -0.3736    2.3897    0.9999 O   0  0  0  0  0  0  0  0  0  0  0  0
   -2.1132    1.2842    2.4361 O   0  0  0  0  0  0  0  0  0  0  0  0
   -2.0734   -1.1422   -2.0972 H   0  0  0  0  0  0  0  0  0  0  0  0
   -1.9206    0.4794   -2.7995 H   0  0  0  0  0  0  0  0  0  0  0  0
   -0.5324   -0.6214   -2.7727 H   0  0  0  0  0  0  0  0  0  0  0  0
   -0.2464    1.0791   -1.0940 H   0  0  0  0  0  0  0  0  0  0  0  0
    0.6576    0.7364    1.1010 H   0  0  0  0  0  0  0  0  0  0  0  0
    0.8009   -2.0001    2.0836 H   0  0  0  0  0  0  0  0  0  0  0  0
    1.6298   -0.5762    2.7269 H   0  0  0  0  0  0  0  0  0  0  0  0
    3.0431   -2.4759    1.7062 H   0  0  0  0  0  0  0  0  0  0  0  0
    2.4870   -1.9738    0.1091 H   0  0  0  0  0  0  0  0  0  0  0  0
    5.0707   -2.3164    0.7307 H   0  0  0  0  0  0  0  0  0  0  0  0
    5.8718   -0.8309    1.2113 H   0  0  0  0  0  0  0  0  0  0  0  0
    6.2947   -1.3444   -1.1880 H   0  0  0  0  0  0  0  0  0  0  0  0
    4.5658   -1.2751   -1.5313 H   0  0  0  0  0  0  0  0  0  0  0  0
    4.4450    2.2476   -0.6800 H   0  0  0  0  0  0  0  0  0  0  0  0
    5.3889    1.5845    0.6549 H   0  0  0  0  0  0  0  0  0  0  0  0
    2.8518    0.3384   -0.5377 H   0  0  0  0  0  0  0  0  0  0  0  0
    2.9017    1.2781    0.9741 H   0  0  0  0  0  0  0  0  0  0  0  0
   -2.6207   -1.2472    1.4755 H   0  0  0  0  0  0  0  0  0  0  0  0
   -4.7375   -2.4991    1.5926 H   0  0  0  0  0  0  0  0  0  0  0  0
   -6.4725    0.1262   -1.3502 H   0  0  0  0  0  0  0  0  0  0  0  0
   -4.3435    1.3792   -1.4854 H   0  0  0  0  0  0  0  0  0  0  0  0
   -2.5847    4.0697    1.6503 H   0  0  0  0  0  0  0  0  0  0  0  0
   -2.6292    3.6974   -0.0949 H   0  0  0  0  0  0  0  0  0  0  0  0
   -3.8516    2.9838    1.0185 H   0  0  0  0  0  0  0  0  0  0  0  0
  1  2  1  0
  2  3  1  0
  3  4  2  0
  3  5  1  0
  5  6  1  0
  6  7  1  0
  7  8  1  0
  8  9  1  0
  9 10  1  0
 10 11  1  0
 11 12  1  0
 12 13  1  0
  2 14  1  0
 14 15  1  0
 15 16  2  0
 16 17  1  0
 17 18  2  0
 18 19  1  0
 18 20  1  0
 20 21  2  0
 14 22  1  0
 22 23  1  0
 22 24  2  0
 22 25  2  0
 13  8  1  0
 21 15  1  0
  1 26  1  0
  1 27  1  0
  1 28  1  0
  2 29  1  0
  5 30  1  0
  6 31  1  0
  6 32  1  0
  7 33  1  0
  7 34  1  0
  9 35  1  0
  9 36  1  0
 10 37  1  0
 10 38  1  0
 12 39  1  0
 12 40  1  0
 13 41  1  0
 13 42  1  0
 16 43  1  0
 17 44  1  0
 20 45  1  0
 21 46  1  0
 23 47  1  0
 23 48  1  0
 23 49  1  0
M  END
$$$$
