
     RDKit          3D

 34 35  0  0  0  0  0  0  0  0999 V2000
    1.1566    1.9180   -0.0977 C   0  0  0  0  0  0  0  0  0  0  0  0
    2.0608    0.7709   -0.4583 C   0  0  0  0  0  0  0  0  0  0  0  0
    3.1153    1.0331   -1.3583 C   0  0  0  0  0  0  0  0  0  0  0  0
    3.9825    0.0181   -1.7551 C   0  0  0  0  0  0  0  0  0  0  0  0
    5.5262    0.4272   -3.0833 I   0  0  0  0  0  0  0  0  0  0  0  0
    3.8144   -1.2670   -1.2608 C   0  0  0  0  0  0  0  0  0  0  0  0
    2.7661   -1.5395   -0.3739 C   0  0  0  0  0  0  0  0  0  0  0  0
    1.8681   -0.5410    0.0292 C   0  0  0  0  0  0  0  0  0  0  0  0
    0.7921   -0.8027    0.9166 N   0  0  0  0  0  0  0  0  0  0  0  0
    0.4504   -2.0178    1.4901 C   0  0  0  0  0  0  0  0  0  0  0  0
    0.9678   -3.1065    1.2529 O   0  0  0  0  0  0  0  0  0  0  0  0
   -0.6871   -1.9211    2.4942 C   0  0  0  0  0  0  0  0  0  0  0  0
   -2.2588   -2.3602    1.7039 S   0  0  0  0  0  0  0  0  0  0  0  0
   -2.5755   -0.9069    0.8157 C   0  0  0  0  0  0  0  0  0  0  0  0
   -2.1306    0.2442    1.1905 N   0  0  0  0  0  0  0  0  0  0  0  0
   -2.4869    1.3363    0.4435 C   0  0  0  0  0  0  0  0  0  0  0  0
   -2.0627    2.5752    0.8701 N   0  0  0  0  0  0  0  0  0  0  0  0
   -3.2347    1.2293   -0.6659 C   0  0  0  0  0  0  0  0  0  0  0  0
   -3.7074   -0.0959   -1.0871 C   0  0  0  0  0  0  0  0  0  0  0  0
   -4.3876   -0.2440   -2.0938 O   0  0  0  0  0  0  0  0  0  0  0  0
   -3.3465   -1.1195   -0.2752 N   0  0  0  0  0  0  0  0  0  0  0  0
    0.9537    1.9364    0.9770 H   0  0  0  0  0  0  0  0  0  0  0  0
    1.6180    2.8820   -0.3441 H   0  0  0  0  0  0  0  0  0  0  0  0
    0.2231    1.8350   -0.6583 H   0  0  0  0  0  0  0  0  0  0  0  0
    3.2520    2.0403   -1.7471 H   0  0  0  0  0  0  0  0  0  0  0  0
    4.4818   -2.0750   -1.5524 H   0  0  0  0  0  0  0  0  0  0  0  0
    2.6808   -2.5626   -0.0224 H   0  0  0  0  0  0  0  0  0  0  0  0
    0.1639   -0.0282    1.1108 H   0  0  0  0  0  0  0  0  0  0  0  0
   -0.4871   -2.6442    3.2912 H   0  0  0  0  0  0  0  0  0  0  0  0
   -0.7232   -0.9359    2.9697 H   0  0  0  0  0  0  0  0  0  0  0  0
   -1.9362    2.5671    1.8799 H   0  0  0  0  0  0  0  0  0  0  0  0
   -2.6694    3.3344    0.5700 H   0  0  0  0  0  0  0  0  0  0  0  0
   -3.5218    2.0689   -1.2824 H   0  0  0  0  0  0  0  0  0  0  0  0
   -3.6581   -2.0486   -0.5092 H   0  0  0  0  0  0  0  0  0  0  0  0
  1  2  1  0
  2  3  2  0
  3  4  1  0
  4  5  1  0
  4  6  2  0
  6  7  1  0
  7  8  2  0
  8  9  1  0
  9 10  1  0
 10 11  2  0
 10 12  1  0
 12 13  1  0
 13 14  1  0
 14 15  2  0
 15 16  1  0
 16 17  1  0
 16 18  2  0
 18 19  1  0
 19 20  2  0
 19 21  1  0
  8  2  1  0
 21 14  1  0
  1 22  1  0
  1 23  1  0
  1 24  1  0
  3 25  1  0
  6 26  1  0
  7 27  1  0
  9 28  1  0
 12 29  1  0
 12 30  1  0
 17 31  1  0
 17 32  1  0
 18 33  1  0
 21 34  1  0
M  END
$$$$
