
     RDKit          3D

 47 50  0  0  0  0  0  0  0  0999 V2000
   -7.5723    1.8816   -0.8010 C   0  0  0  0  0  0  0  0  0  0  0  0
   -6.4271    1.0824   -0.2508 C   0  0  0  0  0  0  0  0  0  0  0  0
   -5.8238    1.4527    0.9596 C   0  0  0  0  0  0  0  0  0  0  0  0
   -4.7405    0.7296    1.4615 C   0  0  0  0  0  0  0  0  0  0  0  0
   -4.2508   -0.3601    0.7392 C   0  0  0  0  0  0  0  0  0  0  0  0
   -2.8703   -1.2898    1.3523 S   0  0  0  0  0  6  0  0  0  0  0  0
   -2.3706   -0.6504    2.5514 O   0  0  0  0  0  0  0  0  0  0  0  0
   -3.2514   -2.6859    1.3464 O   0  0  0  0  0  0  0  0  0  0  0  0
   -1.6941   -1.0599    0.1382 N   0  0  0  0  0  0  0  0  0  0  0  0
   -1.2197    0.3575   -0.0408 C   0  0  0  0  0  0  0  0  0  0  0  0
    0.2701    0.5382    0.2974 C   0  0  0  0  0  0  0  0  0  0  0  0
    1.0935   -0.3466   -0.5461 N   0  0  0  0  0  0  0  0  0  0  0  0
    2.4708   -0.1653   -0.4328 C   0  0  0  0  0  0  0  0  0  0  0  0
    3.3594   -0.8376   -1.2653 C   0  0  0  0  0  0  0  0  0  0  0  0
    4.7389   -0.6279   -1.1593 C   0  0  0  0  0  0  0  0  0  0  0  0
    5.2078    0.2702   -0.2138 C   0  0  0  0  0  0  0  0  0  0  0  0
    6.6033    0.5235   -0.0586 N   0  0  0  0  0  0  0  0  0  0  0  0
    7.6576   -0.0362   -0.7599 C   0  0  0  0  0  0  0  0  0  0  0  0
    8.8162    0.5116   -0.2617 C   0  0  0  0  0  0  0  0  0  0  0  0
    8.3860    1.3931    0.7380 C   0  0  0  0  0  0  0  0  0  0  0  0
    7.0608    1.4086    0.8691 N   0  0  0  0  0  0  0  0  0  0  0  0
    4.3399    0.9298    0.5792 N   0  0  0  0  0  0  0  0  0  0  0  0
    2.9754    0.7132    0.4566 N   0  0  0  0  0  0  0  0  0  0  0  0
    0.5770   -1.7138   -0.7395 C   0  0  0  0  0  0  0  0  0  0  0  0
   -0.5699   -2.0467    0.2332 C   0  0  0  0  0  0  0  0  0  0  0  0
   -4.8359   -0.7375   -0.4720 C   0  0  0  0  0  0  0  0  0  0  0  0
   -5.9186   -0.0101   -0.9674 C   0  0  0  0  0  0  0  0  0  0  0  0
   -8.2392    1.2496   -1.3969 H   0  0  0  0  0  0  0  0  0  0  0  0
   -8.1715    2.3133    0.0076 H   0  0  0  0  0  0  0  0  0  0  0  0
   -7.1937    2.6912   -1.4325 H   0  0  0  0  0  0  0  0  0  0  0  0
   -6.1996    2.3058    1.5212 H   0  0  0  0  0  0  0  0  0  0  0  0
   -4.2896    1.0216    2.4073 H   0  0  0  0  0  0  0  0  0  0  0  0
   -1.8072    1.0568    0.5619 H   0  0  0  0  0  0  0  0  0  0  0  0
   -1.3976    0.6204   -1.0910 H   0  0  0  0  0  0  0  0  0  0  0  0
    0.4380    0.3213    1.3604 H   0  0  0  0  0  0  0  0  0  0  0  0
    0.5332    1.5878    0.1160 H   0  0  0  0  0  0  0  0  0  0  0  0
    2.9901   -1.5153   -2.0283 H   0  0  0  0  0  0  0  0  0  0  0  0
    5.3945   -1.1700   -1.8292 H   0  0  0  0  0  0  0  0  0  0  0  0
    7.5080   -0.7643   -1.5415 H   0  0  0  0  0  0  0  0  0  0  0  0
    9.8285    0.3024   -0.5770 H   0  0  0  0  0  0  0  0  0  0  0  0
    8.9817    2.0288    1.3811 H   0  0  0  0  0  0  0  0  0  0  0  0
    0.2146   -1.7952   -1.7713 H   0  0  0  0  0  0  0  0  0  0  0  0
    1.3560   -2.4735   -0.6028 H   0  0  0  0  0  0  0  0  0  0  0  0
   -0.1824   -2.0684    1.2593 H   0  0  0  0  0  0  0  0  0  0  0  0
   -0.9539   -3.0434   -0.0110 H   0  0  0  0  0  0  0  0  0  0  0  0
   -4.4533   -1.5908   -1.0274 H   0  0  0  0  0  0  0  0  0  0  0  0
   -6.3682   -0.3028   -1.9141 H   0  0  0  0  0  0  0  0  0  0  0  0
  1  2  1  0
  2  3  2  0
  3  4  1  0
  4  5  2  0
  5  6  1  0
  6  7  2  0
  6  8  2  0
  6  9  1  0
  9 10  1  0
 10 11  1  0
 11 12  1  0
 12 13  1  0
 13 14  2  0
 14 15  1  0
 15 16  2  0
 16 17  1  0
 17 18  1  0
 18 19  2  0
 19 20  1  0
 20 21  2  0
 16 22  1  0
 22 23  2  0
 12 24  1  0
 24 25  1  0
  5 26  1  0
 26 27  2  0
 27  2  1  0
 25  9  1  0
 23 13  1  0
 21 17  1  0
  1 28  1  0
  1 29  1  0
  1 30  1  0
  3 31  1  0
  4 32  1  0
 10 33  1  0
 10 34  1  0
 11 35  1  0
 11 36  1  0
 14 37  1  0
 15 38  1  0
 18 39  1  0
 19 40  1  0
 20 41  1  0
 24 42  1  0
 24 43  1  0
 25 44  1  0
 25 45  1  0
 26 46  1  0
 27 47  1  0
M  END
$$$$
