
     RDKit          3D

 41 43  0  0  0  0  0  0  0  0999 V2000
   -2.7129   -3.7694   -0.0703 C   0  0  0  0  0  0  0  0  0  0  0  0
   -2.3589   -2.9241    1.1449 C   0  0  0  0  0  0  0  0  0  0  0  0
   -1.6057   -1.7196    0.7513 N   0  0  0  0  0  0  0  0  0  0  0  0
   -0.2170   -1.7315    0.7316 C   0  0  0  0  0  0  0  0  0  0  0  0
    0.5931   -0.7202    0.3852 C   0  0  0  0  0  0  0  0  0  0  0  0
    2.0746   -0.9329    0.4348 C   0  0  0  0  0  0  0  0  0  0  0  0
    2.5312   -2.0198    0.7796 O   0  0  0  0  0  0  0  0  0  0  0  0
    2.8164    0.1708    0.0691 N   0  0  0  0  0  0  0  0  0  0  0  0
    4.2197    0.2938    0.0106 C   0  0  0  0  0  0  0  0  0  0  0  0
    4.7346    1.5265   -0.3926 C   0  0  0  0  0  0  0  0  0  0  0  0
    6.1097    1.6821   -0.4612 C   0  0  0  0  0  0  0  0  0  0  0  0
    6.9900    0.7069   -0.1598 N   0  0  0  0  0  0  0  0  0  0  0  0
    6.4672   -0.4758    0.2275 C   0  0  0  0  0  0  0  0  0  0  0  0
    5.1076   -0.7287    0.3272 C   0  0  0  0  0  0  0  0  0  0  0  0
   -0.0657    0.5424   -0.0239 C   0  0  0  0  0  0  0  0  0  0  0  0
    0.5979    1.5285   -0.3418 O   0  0  0  0  0  0  0  0  0  0  0  0
   -1.5498    0.5859   -0.0472 C   0  0  0  0  0  0  0  0  0  0  0  0
   -2.1748    1.7767   -0.4618 C   0  0  0  0  0  0  0  0  0  0  0  0
   -3.5612    1.8540   -0.5048 C   0  0  0  0  0  0  0  0  0  0  0  0
   -4.2991    2.9388   -0.8852 O   0  0  0  0  0  0  0  0  0  0  0  0
   -3.5805    4.1053   -1.2696 C   0  0  0  0  0  0  0  0  0  0  0  0
   -4.3084    0.7384   -0.1341 C   0  0  0  0  0  0  0  0  0  0  0  0
   -3.6839   -0.4463    0.2797 C   0  0  0  0  0  0  0  0  0  0  0  0
   -2.2874   -0.5546    0.3372 C   0  0  0  0  0  0  0  0  0  0  0  0
   -3.2476   -4.6724    0.2404 H   0  0  0  0  0  0  0  0  0  0  0  0
   -1.8112   -4.0775   -0.6101 H   0  0  0  0  0  0  0  0  0  0  0  0
   -3.3501   -3.2229   -0.7722 H   0  0  0  0  0  0  0  0  0  0  0  0
   -1.7491   -3.5338    1.8248 H   0  0  0  0  0  0  0  0  0  0  0  0
   -3.2538   -2.6748    1.7256 H   0  0  0  0  0  0  0  0  0  0  0  0
    0.2067   -2.6867    1.0400 H   0  0  0  0  0  0  0  0  0  0  0  0
    2.2837    1.0033   -0.1911 H   0  0  0  0  0  0  0  0  0  0  0  0
    4.0886    2.3582   -0.6511 H   0  0  0  0  0  0  0  0  0  0  0  0
    6.5510    2.6252   -0.7703 H   0  0  0  0  0  0  0  0  0  0  0  0
    7.1939   -1.2475    0.4657 H   0  0  0  0  0  0  0  0  0  0  0  0
    4.7844   -1.7108    0.6472 H   0  0  0  0  0  0  0  0  0  0  0  0
   -1.5535    2.6207   -0.7447 H   0  0  0  0  0  0  0  0  0  0  0  0
   -2.9817    4.4915   -0.4381 H   0  0  0  0  0  0  0  0  0  0  0  0
   -2.9584    3.9129   -2.1500 H   0  0  0  0  0  0  0  0  0  0  0  0
   -4.3111    4.8739   -1.5393 H   0  0  0  0  0  0  0  0  0  0  0  0
   -5.3952    0.7868   -0.1668 H   0  0  0  0  0  0  0  0  0  0  0  0
   -4.3336   -1.2734    0.5469 H   0  0  0  0  0  0  0  0  0  0  0  0
  1  2  1  0
  2  3  1  0
  3  4  1  0
  4  5  2  0
  5  6  1  0
  6  7  2  0
  6  8  1  0
  8  9  1  0
  9 10  2  0
 10 11  1  0
 11 12  2  0
 12 13  1  0
 13 14  2  0
  5 15  1  0
 15 16  2  0
 15 17  1  0
 17 18  2  0
 18 19  1  0
 19 20  1  0
 20 21  1  0
 19 22  2  0
 22 23  1  0
 23 24  2  0
 24  3  1  0
 14  9  1  0
 24 17  1  0
  1 25  1  0
  1 26  1  0
  1 27  1  0
  2 28  1  0
  2 29  1  0
  4 30  1  0
  8 31  1  0
 10 32  1  0
 11 33  1  0
 13 34  1  0
 14 35  1  0
 18 36  1  0
 21 37  1  0
 21 38  1  0
 21 39  1  0
 22 40  1  0
 23 41  1  0
M  END
$$$$
