
     RDKit          3D

 48 50  0  0  0  0  0  0  0  0999 V2000
    9.4598   -1.0181    0.3205 C   0  0  0  0  0  0  0  0  0  0  0  0
    8.4432   -1.1482   -0.6652 O   0  0  0  0  0  0  0  0  0  0  0  0
    7.1720   -0.8130   -0.2916 C   0  0  0  0  0  0  0  0  0  0  0  0
    6.2119   -0.9526   -1.2941 C   0  0  0  0  0  0  0  0  0  0  0  0
    4.8730   -0.6432   -1.0436 C   0  0  0  0  0  0  0  0  0  0  0  0
    4.4748   -0.1897    0.2144 C   0  0  0  0  0  0  0  0  0  0  0  0
    3.1391    0.0778    0.3303 O   0  0  0  0  0  0  0  0  0  0  0  0
    2.6825    0.5434    1.5988 C   0  0  0  0  0  0  0  0  0  0  0  0
    1.1720    0.8025    1.5870 C   0  0  0  0  0  0  0  0  0  0  0  0
    0.5952    1.1687    2.6076 O   0  0  0  0  0  0  0  0  0  0  0  0
    0.5965    0.5807    0.3493 N   0  0  0  0  0  0  0  0  0  0  0  0
   -0.7501    0.7308   -0.0259 C   0  0  0  0  0  0  0  0  0  0  0  0
   -1.0824    0.4134   -1.3501 C   0  0  0  0  0  0  0  0  0  0  0  0
   -2.3996    0.5330   -1.8028 C   0  0  0  0  0  0  0  0  0  0  0  0
   -3.3991    0.9602   -0.9266 C   0  0  0  0  0  0  0  0  0  0  0  0
   -4.7823    1.0954   -1.4379 C   0  0  0  0  0  0  0  0  0  0  0  0
   -4.9585    1.7246   -2.4783 O   0  0  0  0  0  0  0  0  0  0  0  0
   -5.8097    0.4909   -0.7380 N   0  0  0  0  0  0  0  0  0  0  0  0
   -5.6938   -0.5011    0.3235 C   0  0  0  0  0  0  0  0  0  0  0  0
   -7.0401   -1.2147    0.3233 C   0  0  0  0  0  0  0  0  0  0  0  0
   -7.9989   -0.1330   -0.1580 C   0  0  0  0  0  0  0  0  0  0  0  0
   -7.1782    0.5925   -1.2129 C   0  0  0  0  0  0  0  0  0  0  0  0
   -3.0729    1.3067    0.3862 C   0  0  0  0  0  0  0  0  0  0  0  0
   -1.7529    1.1830    0.8355 C   0  0  0  0  0  0  0  0  0  0  0  0
    5.4322   -0.0491    1.2191 C   0  0  0  0  0  0  0  0  0  0  0  0
    6.7764   -0.3599    0.9665 C   0  0  0  0  0  0  0  0  0  0  0  0
   10.4078   -1.3204   -0.1350 H   0  0  0  0  0  0  0  0  0  0  0  0
    9.5634    0.0224    0.6458 H   0  0  0  0  0  0  0  0  0  0  0  0
    9.2722   -1.6820    1.1708 H   0  0  0  0  0  0  0  0  0  0  0  0
    6.5082   -1.3048   -2.2792 H   0  0  0  0  0  0  0  0  0  0  0  0
    4.1416   -0.7589   -1.8390 H   0  0  0  0  0  0  0  0  0  0  0  0
    3.1676    1.4937    1.8501 H   0  0  0  0  0  0  0  0  0  0  0  0
    2.8707   -0.2145    2.3681 H   0  0  0  0  0  0  0  0  0  0  0  0
    1.2450    0.2621   -0.3659 H   0  0  0  0  0  0  0  0  0  0  0  0
   -0.3223    0.0742   -2.0495 H   0  0  0  0  0  0  0  0  0  0  0  0
   -2.6454    0.2969   -2.8357 H   0  0  0  0  0  0  0  0  0  0  0  0
   -5.5413    0.0295    1.2687 H   0  0  0  0  0  0  0  0  0  0  0  0
   -4.8578   -1.1833    0.1457 H   0  0  0  0  0  0  0  0  0  0  0  0
   -7.3043   -1.6165    1.3052 H   0  0  0  0  0  0  0  0  0  0  0  0
   -7.0255   -2.0431   -0.3953 H   0  0  0  0  0  0  0  0  0  0  0  0
   -8.9351   -0.5351   -0.5541 H   0  0  0  0  0  0  0  0  0  0  0  0
   -8.2367    0.5468    0.6690 H   0  0  0  0  0  0  0  0  0  0  0  0
   -7.2414    0.0885   -2.1841 H   0  0  0  0  0  0  0  0  0  0  0  0
   -7.4678    1.6403   -1.3367 H   0  0  0  0  0  0  0  0  0  0  0  0
   -3.8322    1.6927    1.0608 H   0  0  0  0  0  0  0  0  0  0  0  0
   -1.5389    1.4620    1.8627 H   0  0  0  0  0  0  0  0  0  0  0  0
    5.1747    0.2998    2.2140 H   0  0  0  0  0  0  0  0  0  0  0  0
    7.4873   -0.2358    1.7768 H   0  0  0  0  0  0  0  0  0  0  0  0
  1  2  1  0
  2  3  1  0
  3  4  2  0
  4  5  1  0
  5  6  2  0
  6  7  1  0
  7  8  1  0
  8  9  1  0
  9 10  2  0
  9 11  1  0
 11 12  1  0
 12 13  2  0
 13 14  1  0
 14 15  2  0
 15 16  1  0
 16 17  2  0
 16 18  1  0
 18 19  1  0
 19 20  1  0
 20 21  1  0
 21 22  1  0
 15 23  1  0
 23 24  2  0
  6 25  1  0
 25 26  2  0
 26  3  1  0
 24 12  1  0
 22 18  1  0
  1 27  1  0
  1 28  1  0
  1 29  1  0
  4 30  1  0
  5 31  1  0
  8 32  1  0
  8 33  1  0
 11 34  1  0
 13 35  1  0
 14 36  1  0
 19 37  1  0
 19 38  1  0
 20 39  1  0
 20 40  1  0
 21 41  1  0
 21 42  1  0
 22 43  1  0
 22 44  1  0
 23 45  1  0
 24 46  1  0
 25 47  1  0
 26 48  1  0
M  END
$$$$
