
     RDKit          3D

 43 45  0  0  0  0  0  0  0  0999 V2000
   -3.4392   -3.1345    1.6996 C   0  0  0  0  0  0  0  0  0  0  0  0
   -2.6851   -2.2079    0.9263 O   0  0  0  0  0  0  0  0  0  0  0  0
   -3.3638   -1.1677    0.3419 C   0  0  0  0  0  0  0  0  0  0  0  0
   -4.7600   -1.1303    0.2167 C   0  0  0  0  0  0  0  0  0  0  0  0
   -5.3917   -0.0486   -0.4018 C   0  0  0  0  0  0  0  0  0  0  0  0
   -4.6371    1.0067   -0.9037 C   0  0  0  0  0  0  0  0  0  0  0  0
   -3.2466    0.9905   -0.7743 C   0  0  0  0  0  0  0  0  0  0  0  0
   -2.5357    2.0080   -1.3583 O   0  0  0  0  0  0  0  0  0  0  0  0
   -2.5524    3.1712   -0.5289 C   0  0  0  0  0  0  0  0  0  0  0  0
   -2.5974   -0.0991   -0.1698 C   0  0  0  0  0  0  0  0  0  0  0  0
   -1.1112   -0.0828   -0.0557 C   0  0  0  0  0  0  0  0  0  0  0  0
   -0.5108    0.9252    0.3045 O   0  0  0  0  0  0  0  0  0  0  0  0
   -0.4662   -1.2605   -0.3780 N   0  0  0  0  0  0  0  0  0  0  0  0
    0.9669   -1.4019   -0.2161 C   0  0  0  0  0  0  0  0  0  0  0  0
    1.7491   -0.6970   -1.3242 C   0  0  0  0  0  0  0  0  0  0  0  0
    3.2082   -0.6723   -1.0163 C   0  0  0  0  0  0  0  0  0  0  0  0
    4.0927   -1.5619   -1.4327 N   0  0  0  0  0  0  0  0  0  0  0  0
    5.2994   -1.1544   -0.9250 C   0  0  0  0  0  0  0  0  0  0  0  0
    5.1558   -0.0089   -0.1807 C   0  0  0  0  0  0  0  0  0  0  0  0
    6.0131    0.8455    0.5651 C   0  0  0  0  0  0  0  0  0  0  0  0
    5.4897    1.9153    1.1955 C   0  0  0  0  0  0  0  0  0  0  0  0
    4.0679    2.2170    1.1326 C   0  0  0  0  0  0  0  0  0  0  0  0
    3.2601    1.4102    0.4232 C   0  0  0  0  0  0  0  0  0  0  0  0
    3.8032    0.3036   -0.2334 N   0  0  0  0  0  0  0  0  0  0  0  0
   -2.7321   -3.7990    2.2055 H   0  0  0  0  0  0  0  0  0  0  0  0
   -4.0285   -2.6263    2.4701 H   0  0  0  0  0  0  0  0  0  0  0  0
   -4.0739   -3.7526    1.0567 H   0  0  0  0  0  0  0  0  0  0  0  0
   -5.3887   -1.9378    0.5791 H   0  0  0  0  0  0  0  0  0  0  0  0
   -6.4744   -0.0374   -0.5045 H   0  0  0  0  0  0  0  0  0  0  0  0
   -5.1285    1.8322   -1.4118 H   0  0  0  0  0  0  0  0  0  0  0  0
   -2.3289    2.9361    0.5179 H   0  0  0  0  0  0  0  0  0  0  0  0
   -1.7817    3.8554   -0.8959 H   0  0  0  0  0  0  0  0  0  0  0  0
   -3.5199    3.6789   -0.6022 H   0  0  0  0  0  0  0  0  0  0  0  0
   -1.0317   -2.0951   -0.4855 H   0  0  0  0  0  0  0  0  0  0  0  0
    1.2347   -1.0073    0.7713 H   0  0  0  0  0  0  0  0  0  0  0  0
    1.1915   -2.4745   -0.2137 H   0  0  0  0  0  0  0  0  0  0  0  0
    1.3809    0.3217   -1.4897 H   0  0  0  0  0  0  0  0  0  0  0  0
    1.5879   -1.2259   -2.2720 H   0  0  0  0  0  0  0  0  0  0  0  0
    6.2063   -1.7103   -1.1224 H   0  0  0  0  0  0  0  0  0  0  0  0
    7.0750    0.6286    0.6187 H   0  0  0  0  0  0  0  0  0  0  0  0
    6.1224    2.5836    1.7716 H   0  0  0  0  0  0  0  0  0  0  0  0
    3.6879    3.0851    1.6599 H   0  0  0  0  0  0  0  0  0  0  0  0
    2.1927    1.5792    0.3409 H   0  0  0  0  0  0  0  0  0  0  0  0
  1  2  1  0
  2  3  1  0
  3  4  2  0
  4  5  1  0
  5  6  2  0
  6  7  1  0
  7  8  1  0
  8  9  1  0
  7 10  2  0
 10 11  1  0
 11 12  2  0
 11 13  1  0
 13 14  1  0
 14 15  1  0
 15 16  1  0
 16 17  2  0
 17 18  1  0
 18 19  2  0
 19 20  1  0
 20 21  2  0
 21 22  1  0
 22 23  2  0
 23 24  1  0
 10  3  1  0
 24 16  1  0
 24 19  1  0
  1 25  1  0
  1 26  1  0
  1 27  1  0
  4 28  1  0
  5 29  1  0
  6 30  1  0
  9 31  1  0
  9 32  1  0
  9 33  1  0
 13 34  1  0
 14 35  1  0
 14 36  1  0
 15 37  1  0
 15 38  1  0
 18 39  1  0
 20 40  1  0
 21 41  1  0
 22 42  1  0
 23 43  1  0
M  END
$$$$
