
     RDKit          3D

 39 41  0  0  0  0  0  0  0  0999 V2000
    6.7142   -2.0433    0.1449 C   0  0  0  0  0  0  0  0  0  0  0  0
    5.7496   -0.9065    0.0340 C   0  0  0  0  0  0  0  0  0  0  0  0
    6.0903    0.3678    0.2638 C   0  0  0  0  0  0  0  0  0  0  0  0
    5.0718    1.4280    0.1280 C   0  0  0  0  0  0  0  0  0  0  0  0
    5.3873    2.6023    0.2928 O   0  0  0  0  0  0  0  0  0  0  0  0
    3.6826    1.0029   -0.2276 C   0  0  0  0  0  0  0  0  0  0  0  0
    2.7382    2.0005   -0.3195 O   0  0  0  0  0  0  0  0  0  0  0  0
    1.4292    1.6831   -0.7527 C   0  0  0  0  0  0  0  0  0  0  0  0
    0.5026    0.9830    0.2583 C   0  0  0  0  0  0  0  0  0  0  0  0
    0.9104    0.5696    1.3383 O   0  0  0  0  0  0  0  0  0  0  0  0
   -0.7925    0.8708   -0.2281 N   0  0  0  0  0  0  0  0  0  0  0  0
   -1.9068    0.2692    0.4000 C   0  0  0  0  0  0  0  0  0  0  0  0
   -1.8528   -0.3355    1.6636 C   0  0  0  0  0  0  0  0  0  0  0  0
   -2.9834   -0.9170    2.2368 C   0  0  0  0  0  0  0  0  0  0  0  0
   -4.2094   -0.9182    1.5728 C   0  0  0  0  0  0  0  0  0  0  0  0
   -4.2701   -0.3150    0.3089 C   0  0  0  0  0  0  0  0  0  0  0  0
   -3.1503    0.2762   -0.2893 C   0  0  0  0  0  0  0  0  0  0  0  0
   -3.5856    0.7800   -1.5540 C   0  0  0  0  0  0  0  0  0  0  0  0
   -4.9236    0.4925   -1.6935 C   0  0  0  0  0  0  0  0  0  0  0  0
   -5.3279   -0.1669   -0.5653 N   0  0  0  0  0  0  0  0  0  0  0  0
   -6.6737   -0.6394   -0.3253 C   0  0  0  0  0  0  0  0  0  0  0  0
    3.4989   -0.3127   -0.4264 C   0  0  0  0  0  0  0  0  0  0  0  0
    4.4685   -1.2838   -0.3273 O   0  0  0  0  0  0  0  0  0  0  0  0
    7.7155   -1.7063    0.4325 H   0  0  0  0  0  0  0  0  0  0  0  0
    6.3701   -2.7589    0.8984 H   0  0  0  0  0  0  0  0  0  0  0  0
    6.7966   -2.5641   -0.8145 H   0  0  0  0  0  0  0  0  0  0  0  0
    7.0867    0.6813    0.5450 H   0  0  0  0  0  0  0  0  0  0  0  0
    1.4608    1.0998   -1.6816 H   0  0  0  0  0  0  0  0  0  0  0  0
    0.9543    2.6401   -1.0019 H   0  0  0  0  0  0  0  0  0  0  0  0
   -0.9856    1.2778   -1.1340 H   0  0  0  0  0  0  0  0  0  0  0  0
   -0.9310   -0.3683    2.2364 H   0  0  0  0  0  0  0  0  0  0  0  0
   -2.9051   -1.3761    3.2201 H   0  0  0  0  0  0  0  0  0  0  0  0
   -5.0820   -1.3734    2.0303 H   0  0  0  0  0  0  0  0  0  0  0  0
   -2.9887    1.3004   -2.2898 H   0  0  0  0  0  0  0  0  0  0  0  0
   -5.6120    0.7060   -2.5011 H   0  0  0  0  0  0  0  0  0  0  0  0
   -7.3081   -0.3885   -1.1793 H   0  0  0  0  0  0  0  0  0  0  0  0
   -6.6412   -1.7241   -0.1951 H   0  0  0  0  0  0  0  0  0  0  0  0
   -7.0560   -0.1514    0.5749 H   0  0  0  0  0  0  0  0  0  0  0  0
    2.5587   -0.7821   -0.6762 H   0  0  0  0  0  0  0  0  0  0  0  0
  1  2  1  0
  2  3  2  0
  3  4  1  0
  4  5  2  0
  4  6  1  0
  6  7  1  0
  7  8  1  0
  8  9  1  0
  9 10  2  0
  9 11  1  0
 11 12  1  0
 12 13  2  0
 13 14  1  0
 14 15  2  0
 15 16  1  0
 16 17  2  0
 17 18  1  0
 18 19  2  0
 19 20  1  0
 20 21  1  0
  6 22  2  0
 22 23  1  0
 23  2  1  0
 17 12  1  0
 20 16  1  0
  1 24  1  0
  1 25  1  0
  1 26  1  0
  3 27  1  0
  8 28  1  0
  8 29  1  0
 11 30  1  0
 13 31  1  0
 14 32  1  0
 15 33  1  0
 18 34  1  0
 19 35  1  0
 21 36  1  0
 21 37  1  0
 21 38  1  0
 22 39  1  0
M  END
$$$$
