
     RDKit          3D

 62 64  0  0  0  0  0  0  0  0999 V2000
   -3.3090   -2.8573    2.8618 C   0  0  0  0  0  0  0  0  0  0  0  0
   -2.9656   -1.7741    2.0077 O   0  0  0  0  0  0  0  0  0  0  0  0
   -2.0391   -2.0111    1.0293 C   0  0  0  0  0  0  0  0  0  0  0  0
   -1.6126   -3.2841    0.6336 C   0  0  0  0  0  0  0  0  0  0  0  0
   -0.6653   -3.4310   -0.3870 C   0  0  0  0  0  0  0  0  0  0  0  0
   -0.1339   -2.3004   -1.0139 C   0  0  0  0  0  0  0  0  0  0  0  0
    1.0493   -2.4949   -2.3242 S   0  0  0  0  0  6  0  0  0  0  0  0
    0.9737   -1.3254   -3.1698 O   0  0  0  0  0  0  0  0  0  0  0  0
    0.8935   -3.8303   -2.8586 O   0  0  0  0  0  0  0  0  0  0  0  0
    2.5114   -2.4819   -1.5083 N   0  0  0  0  0  0  0  0  0  0  0  0
    2.8985   -1.3119   -0.7118 C   0  0  0  0  0  0  0  0  0  0  0  0
    4.4225   -1.2498   -0.6313 C   0  0  0  0  0  0  0  0  0  0  0  0
    4.9183   -0.1413    0.3075 C   0  0  0  0  0  0  0  0  0  0  0  0
    4.3928    1.1880   -0.0356 N   0  0  0  0  0  0  0  0  0  0  0  0
    4.6973    2.1759    1.0132 C   0  0  0  0  0  0  0  0  0  0  0  0
    6.0998    2.6829    0.7149 C   0  0  0  0  0  0  0  0  0  0  0  0
    6.3013    2.4308   -0.7727 C   0  0  0  0  0  0  0  0  0  0  0  0
    5.0171    1.7597   -1.2399 C   0  0  0  0  0  0  0  0  0  0  0  0
   -0.5624   -1.0240   -0.6533 C   0  0  0  0  0  0  0  0  0  0  0  0
   -1.5168   -0.8905    0.3626 C   0  0  0  0  0  0  0  0  0  0  0  0
   -1.8985    0.4775    0.7625 C   0  0  0  0  0  0  0  0  0  0  0  0
   -1.3272    0.9493    1.7431 O   0  0  0  0  0  0  0  0  0  0  0  0
   -2.8184    1.1752   -0.0276 N   0  0  0  0  0  0  0  0  0  0  0  0
   -3.6495    0.5533   -1.0617 C   0  0  0  0  0  0  0  0  0  0  0  0
   -4.9502    0.0076   -0.4805 C   0  0  0  0  0  0  0  0  0  0  0  0
   -6.0754    1.0311   -0.3261 C   0  0  0  0  0  0  0  0  0  0  0  0
   -5.6988    2.4599    0.0648 C   0  0  0  0  0  0  0  0  0  0  0  0
   -4.5499    2.5969    1.0621 C   0  0  0  0  0  0  0  0  0  0  0  0
   -3.1806    2.5248    0.3853 C   0  0  0  0  0  0  0  0  0  0  0  0
   -2.4208   -3.2932    3.3314 H   0  0  0  0  0  0  0  0  0  0  0  0
   -3.9487   -2.4651    3.6582 H   0  0  0  0  0  0  0  0  0  0  0  0
   -3.8817   -3.6156    2.3184 H   0  0  0  0  0  0  0  0  0  0  0  0
   -2.0056   -4.1855    1.0940 H   0  0  0  0  0  0  0  0  0  0  0  0
   -0.3525   -4.4296   -0.6875 H   0  0  0  0  0  0  0  0  0  0  0  0
    2.8397   -3.4021   -1.2234 H   0  0  0  0  0  0  0  0  0  0  0  0
    2.4753   -1.4133    0.2931 H   0  0  0  0  0  0  0  0  0  0  0  0
    2.5100   -0.3966   -1.1685 H   0  0  0  0  0  0  0  0  0  0  0  0
    4.8423   -1.1257   -1.6365 H   0  0  0  0  0  0  0  0  0  0  0  0
    4.8081   -2.2093   -0.2621 H   0  0  0  0  0  0  0  0  0  0  0  0
    6.0149   -0.1545    0.3320 H   0  0  0  0  0  0  0  0  0  0  0  0
    4.5817   -0.4054    1.3187 H   0  0  0  0  0  0  0  0  0  0  0  0
    4.6003    1.7819    2.0308 H   0  0  0  0  0  0  0  0  0  0  0  0
    3.9823    3.0042    0.9278 H   0  0  0  0  0  0  0  0  0  0  0  0
    6.2065    3.7433    0.9652 H   0  0  0  0  0  0  0  0  0  0  0  0
    6.8462    2.1243    1.2915 H   0  0  0  0  0  0  0  0  0  0  0  0
    7.1646    1.7730   -0.9260 H   0  0  0  0  0  0  0  0  0  0  0  0
    6.4866    3.3616   -1.3188 H   0  0  0  0  0  0  0  0  0  0  0  0
    4.3394    2.5188   -1.6507 H   0  0  0  0  0  0  0  0  0  0  0  0
    5.1951    1.0385   -2.0429 H   0  0  0  0  0  0  0  0  0  0  0  0
   -0.1612   -0.1383   -1.1420 H   0  0  0  0  0  0  0  0  0  0  0  0
   -3.1005   -0.2729   -1.5210 H   0  0  0  0  0  0  0  0  0  0  0  0
   -3.8341    1.2830   -1.8583 H   0  0  0  0  0  0  0  0  0  0  0  0
   -4.7621   -0.4571    0.4939 H   0  0  0  0  0  0  0  0  0  0  0  0
   -5.3200   -0.7944   -1.1317 H   0  0  0  0  0  0  0  0  0  0  0  0
   -6.7844    0.6383    0.4143 H   0  0  0  0  0  0  0  0  0  0  0  0
   -6.6373    1.0811   -1.2678 H   0  0  0  0  0  0  0  0  0  0  0  0
   -5.4696    3.0343   -0.8417 H   0  0  0  0  0  0  0  0  0  0  0  0
   -6.5924    2.9318    0.4932 H   0  0  0  0  0  0  0  0  0  0  0  0
   -4.6370    1.8539    1.8633 H   0  0  0  0  0  0  0  0  0  0  0  0
   -4.6333    3.5851    1.5316 H   0  0  0  0  0  0  0  0  0  0  0  0
   -3.1465    3.1677   -0.5023 H   0  0  0  0  0  0  0  0  0  0  0  0
   -2.4275    2.9171    1.0775 H   0  0  0  0  0  0  0  0  0  0  0  0
  1  2  1  0
  2  3  1  0
  3  4  2  0
  4  5  1  0
  5  6  2  0
  6  7  1  0
  7  8  2  0
  7  9  2  0
  7 10  1  0
 10 11  1  0
 11 12  1  0
 12 13  1  0
 13 14  1  0
 14 15  1  0
 15 16  1  0
 16 17  1  0
 17 18  1  0
  6 19  1  0
 19 20  2  0
 20 21  1  0
 21 22  2  0
 21 23  1  0
 23 24  1  0
 24 25  1  0
 25 26  1  0
 26 27  1  0
 27 28  1  0
 28 29  1  0
 20  3  1  0
 29 23  1  0
 18 14  1  0
  1 30  1  0
  1 31  1  0
  1 32  1  0
  4 33  1  0
  5 34  1  0
 10 35  1  0
 11 36  1  0
 11 37  1  0
 12 38  1  0
 12 39  1  0
 13 40  1  0
 13 41  1  0
 15 42  1  0
 15 43  1  0
 16 44  1  0
 16 45  1  0
 17 46  1  0
 17 47  1  0
 18 48  1  0
 18 49  1  0
 19 50  1  0
 24 51  1  0
 24 52  1  0
 25 53  1  0
 25 54  1  0
 26 55  1  0
 26 56  1  0
 27 57  1  0
 27 58  1  0
 28 59  1  0
 28 60  1  0
 29 61  1  0
 29 62  1  0
M  END
$$$$
