
     RDKit          3D

 37 38  0  0  0  0  0  0  0  0999 V2000
    5.5348    1.5374    0.9019 C   0  0  0  0  0  0  0  0  0  0  0  0
    4.9240    0.2789    0.6498 O   0  0  0  0  0  0  0  0  0  0  0  0
    3.7067    0.2856    0.0252 C   0  0  0  0  0  0  0  0  0  0  0  0
    2.9818    1.4269   -0.3292 C   0  0  0  0  0  0  0  0  0  0  0  0
    1.7384    1.3028   -0.9603 C   0  0  0  0  0  0  0  0  0  0  0  0
    1.2144    0.0330   -1.2254 C   0  0  0  0  0  0  0  0  0  0  0  0
   -0.3520   -0.1232   -2.0565 S   0  0  0  0  0  6  0  0  0  0  0  0
   -0.3373   -1.3838   -2.7670 O   0  0  0  0  0  0  0  0  0  0  0  0
   -0.5933    1.1231   -2.7526 O   0  0  0  0  0  0  0  0  0  0  0  0
   -1.4621   -0.2408   -0.7711 N   0  0  0  0  0  0  0  0  0  0  0  0
   -1.4263   -1.4858    0.0318 C   0  0  0  0  0  0  0  0  0  0  0  0
   -2.7486   -1.6456    0.7768 C   0  0  0  0  0  0  0  0  0  0  0  0
   -3.0604   -0.4164    1.6285 C   0  0  0  0  0  0  0  0  0  0  0  0
   -2.9856    0.8868    0.8198 C   0  0  0  0  0  0  0  0  0  0  0  0
   -4.1816    1.0394   -0.1253 C   0  0  0  0  0  0  0  0  0  0  0  0
   -1.6557    0.9749    0.0570 C   0  0  0  0  0  0  0  0  0  0  0  0
    1.9376   -1.1133   -0.9007 C   0  0  0  0  0  0  0  0  0  0  0  0
    3.1696   -0.9744   -0.2707 C   0  0  0  0  0  0  0  0  0  0  0  0
    3.8466   -2.0863    0.0544 F   0  0  0  0  0  0  0  0  0  0  0  0
    5.7178    2.0821   -0.0303 H   0  0  0  0  0  0  0  0  0  0  0  0
    4.9350    2.1336    1.5973 H   0  0  0  0  0  0  0  0  0  0  0  0
    6.5040    1.3504    1.3742 H   0  0  0  0  0  0  0  0  0  0  0  0
    3.3572    2.4267   -0.1342 H   0  0  0  0  0  0  0  0  0  0  0  0
    1.1902    2.1990   -1.2462 H   0  0  0  0  0  0  0  0  0  0  0  0
   -0.5954   -1.4491    0.7451 H   0  0  0  0  0  0  0  0  0  0  0  0
   -1.2872   -2.3593   -0.6126 H   0  0  0  0  0  0  0  0  0  0  0  0
   -2.7054   -2.5343    1.4166 H   0  0  0  0  0  0  0  0  0  0  0  0
   -3.5595   -1.8121    0.0578 H   0  0  0  0  0  0  0  0  0  0  0  0
   -2.3341   -0.3644    2.4499 H   0  0  0  0  0  0  0  0  0  0  0  0
   -4.0483   -0.5254    2.0909 H   0  0  0  0  0  0  0  0  0  0  0  0
   -3.0275    1.7257    1.5267 H   0  0  0  0  0  0  0  0  0  0  0  0
   -5.1226    0.9946    0.4332 H   0  0  0  0  0  0  0  0  0  0  0  0
   -4.1449    2.0074   -0.6365 H   0  0  0  0  0  0  0  0  0  0  0  0
   -4.2074    0.2594   -0.8924 H   0  0  0  0  0  0  0  0  0  0  0  0
   -0.8283    1.0657    0.7708 H   0  0  0  0  0  0  0  0  0  0  0  0
   -1.6599    1.8747   -0.5669 H   0  0  0  0  0  0  0  0  0  0  0  0
    1.5653   -2.1073   -1.1299 H   0  0  0  0  0  0  0  0  0  0  0  0
  1  2  1  0
  2  3  1  0
  3  4  2  0
  4  5  1  0
  5  6  2  0
  6  7  1  0
  7  8  2  0
  7  9  2  0
  7 10  1  0
 10 11  1  0
 11 12  1  0
 12 13  1  0
 13 14  1  0
 14 15  1  0
 14 16  1  0
  6 17  1  0
 17 18  2  0
 18 19  1  0
 18  3  1  0
 16 10  1  0
  1 20  1  0
  1 21  1  0
  1 22  1  0
  4 23  1  0
  5 24  1  0
 11 25  1  0
 11 26  1  0
 12 27  1  0
 12 28  1  0
 13 29  1  0
 13 30  1  0
 14 31  1  0
 15 32  1  0
 15 33  1  0
 15 34  1  0
 16 35  1  0
 16 36  1  0
 17 37  1  0
M  END
$$$$
