
     RDKit          3D

 35 36  0  0  0  0  0  0  0  0999 V2000
    3.6962   -1.9900    0.2560 C   0  0  0  0  0  0  0  0  0  0  0  0
    2.5266   -1.0837    0.5325 C   0  0  0  0  0  0  0  0  0  0  0  0
    1.6337   -1.4283    1.5623 C   0  0  0  0  0  0  0  0  0  0  0  0
    0.5392   -0.6169    1.8625 C   0  0  0  0  0  0  0  0  0  0  0  0
    0.3213    0.5480    1.1254 C   0  0  0  0  0  0  0  0  0  0  0  0
   -1.0510    1.6075    1.5376 S   0  0  0  0  0  6  0  0  0  0  0  0
   -0.7194    2.9392    1.0779 O   0  0  0  0  0  0  0  0  0  0  0  0
   -1.3962    1.3501    2.9189 O   0  0  0  0  0  0  0  0  0  0  0  0
   -2.3027    1.0219    0.5660 N   0  0  0  0  0  0  0  0  0  0  0  0
   -2.2591    1.3394   -0.8857 C   0  0  0  0  0  0  0  0  0  0  0  0
   -3.3808    0.5956   -1.6168 C   0  0  0  0  0  0  0  0  0  0  0  0
   -3.2462   -0.8301   -1.5295 O   0  0  0  0  0  0  0  0  0  0  0  0
   -2.6770   -1.2796   -0.2914 C   0  0  0  0  0  0  0  0  0  0  0  0
   -2.8889   -0.3104    0.8768 C   0  0  0  0  0  0  0  0  0  0  0  0
    1.2168    0.9317    0.1230 C   0  0  0  0  0  0  0  0  0  0  0  0
    2.3157    0.1136   -0.1832 C   0  0  0  0  0  0  0  0  0  0  0  0
    3.2640    0.5562   -1.2444 C   0  0  0  0  0  0  0  0  0  0  0  0
    2.7125    1.1453   -2.3489 N   0  0  0  0  0  0  0  0  0  0  0  0
    4.4722    0.3908   -1.1589 O   0  0  0  0  0  0  0  0  0  0  0  0
    4.6194   -1.5472    0.6422 H   0  0  0  0  0  0  0  0  0  0  0  0
    3.5649   -2.9649    0.7382 H   0  0  0  0  0  0  0  0  0  0  0  0
    3.7950   -2.1812   -0.8173 H   0  0  0  0  0  0  0  0  0  0  0  0
    1.7964   -2.3321    2.1483 H   0  0  0  0  0  0  0  0  0  0  0  0
   -0.1229   -0.8924    2.6811 H   0  0  0  0  0  0  0  0  0  0  0  0
   -2.3877    2.4174   -1.0242 H   0  0  0  0  0  0  0  0  0  0  0  0
   -1.2956    1.0333   -1.3044 H   0  0  0  0  0  0  0  0  0  0  0  0
   -3.3802    0.8600   -2.6789 H   0  0  0  0  0  0  0  0  0  0  0  0
   -4.3614    0.8696   -1.2104 H   0  0  0  0  0  0  0  0  0  0  0  0
   -3.1226   -2.2523   -0.0602 H   0  0  0  0  0  0  0  0  0  0  0  0
   -1.6074   -1.4444   -0.4635 H   0  0  0  0  0  0  0  0  0  0  0  0
   -3.9609   -0.1617    1.0525 H   0  0  0  0  0  0  0  0  0  0  0  0
   -2.4689   -0.7359    1.7920 H   0  0  0  0  0  0  0  0  0  0  0  0
    1.0794    1.8803   -0.3920 H   0  0  0  0  0  0  0  0  0  0  0  0
    3.3487    1.3527   -3.1089 H   0  0  0  0  0  0  0  0  0  0  0  0
    1.7267    1.0983   -2.5598 H   0  0  0  0  0  0  0  0  0  0  0  0
  1  2  1  0
  2  3  2  0
  3  4  1  0
  4  5  2  0
  5  6  1  0
  6  7  2  0
  6  8  2  0
  6  9  1  0
  9 10  1  0
 10 11  1  0
 11 12  1  0
 12 13  1  0
 13 14  1  0
  5 15  1  0
 15 16  2  0
 16 17  1  0
 17 18  1  0
 17 19  2  0
 16  2  1  0
 14  9  1  0
  1 20  1  0
  1 21  1  0
  1 22  1  0
  3 23  1  0
  4 24  1  0
 10 25  1  0
 10 26  1  0
 11 27  1  0
 11 28  1  0
 13 29  1  0
 13 30  1  0
 14 31  1  0
 14 32  1  0
 15 33  1  0
 18 34  1  0
 18 35  1  0
M  END
$$$$
