
     RDKit          3D

 48 51  0  0  0  0  0  0  0  0999 V2000
   -5.9295   -1.4981   -0.3110 C   0  0  0  0  0  0  0  0  0  0  0  0
   -4.8636   -0.7592    0.4944 C   0  0  0  0  0  0  0  0  0  0  0  0
   -5.0253   -1.0294    1.9964 C   0  0  0  0  0  0  0  0  0  0  0  0
   -3.7066   -0.9056    2.7561 C   0  0  0  0  0  0  0  0  0  0  0  0
   -2.7493    0.0813    2.0969 C   0  0  0  0  0  0  0  0  0  0  0  0
   -2.4426   -0.3082    0.7163 N   0  0  0  0  0  0  0  0  0  0  0  0
   -1.1902   -0.1635    0.1493 C   0  0  0  0  0  0  0  0  0  0  0  0
   -0.8189   -0.8704   -0.8763 N   0  0  0  0  0  0  0  0  0  0  0  0
    0.4426   -0.7005   -1.3569 C   0  0  0  0  0  0  0  0  0  0  0  0
    1.3392    0.1894   -0.9157 C   0  0  0  0  0  0  0  0  0  0  0  0
    0.8339    1.1237    0.1044 C   0  0  0  0  0  0  0  0  0  0  0  0
    1.3971    2.1773    0.3775 O   0  0  0  0  0  0  0  0  0  0  0  0
   -0.3486    0.7739    0.6836 N   0  0  0  0  0  0  0  0  0  0  0  0
    2.6994    0.3425   -1.5486 C   0  0  0  0  0  0  0  0  0  0  0  0
    3.8365    0.8081   -0.6436 C   0  0  0  0  0  0  0  0  0  0  0  0
    4.7730    1.7395   -1.1242 C   0  0  0  0  0  0  0  0  0  0  0  0
    5.8411    2.1544   -0.3235 C   0  0  0  0  0  0  0  0  0  0  0  0
    5.9940    1.6435    0.9646 C   0  0  0  0  0  0  0  0  0  0  0  0
    5.0772    0.7173    1.4546 C   0  0  0  0  0  0  0  0  0  0  0  0
    4.0142    0.3089    0.6545 C   0  0  0  0  0  0  0  0  0  0  0  0
    3.1520   -0.5905    1.1497 F   0  0  0  0  0  0  0  0  0  0  0  0
    3.1165   -0.8958   -2.3813 C   0  0  0  0  0  0  0  0  0  0  0  0
    3.7569   -1.9709   -1.6050 C   0  0  0  0  0  0  0  0  0  0  0  0
    4.2783   -2.8183   -1.0065 N   0  0  0  0  0  0  0  0  0  0  0  0
    1.9326   -1.5182   -3.0944 C   0  0  0  0  0  0  0  0  0  0  0  0
    2.0448   -2.1027   -4.1706 O   0  0  0  0  0  0  0  0  0  0  0  0
    0.7334   -1.4754   -2.4385 N   0  0  0  0  0  0  0  0  0  0  0  0
   -3.4520   -1.1237    0.0199 C   0  0  0  0  0  0  0  0  0  0  0  0
   -5.8527   -1.2513   -1.3751 H   0  0  0  0  0  0  0  0  0  0  0  0
   -6.9333   -1.2193    0.0264 H   0  0  0  0  0  0  0  0  0  0  0  0
   -5.8249   -2.5835   -0.2079 H   0  0  0  0  0  0  0  0  0  0  0  0
   -5.0104    0.3173    0.3278 H   0  0  0  0  0  0  0  0  0  0  0  0
   -5.7541   -0.3180    2.4047 H   0  0  0  0  0  0  0  0  0  0  0  0
   -5.4405   -2.0284    2.1785 H   0  0  0  0  0  0  0  0  0  0  0  0
   -3.9035   -0.6097    3.7928 H   0  0  0  0  0  0  0  0  0  0  0  0
   -3.2274   -1.8925    2.7992 H   0  0  0  0  0  0  0  0  0  0  0  0
   -1.8368    0.1115    2.7035 H   0  0  0  0  0  0  0  0  0  0  0  0
   -3.1791    1.0897    2.0985 H   0  0  0  0  0  0  0  0  0  0  0  0
   -0.7075    1.4343    1.3515 H   0  0  0  0  0  0  0  0  0  0  0  0
    2.5422    1.1569   -2.2754 H   0  0  0  0  0  0  0  0  0  0  0  0
    4.6784    2.1584   -2.1241 H   0  0  0  0  0  0  0  0  0  0  0  0
    6.5557    2.8802   -0.7053 H   0  0  0  0  0  0  0  0  0  0  0  0
    6.8256    1.9669    1.5852 H   0  0  0  0  0  0  0  0  0  0  0  0
    5.1833    0.3066    2.4537 H   0  0  0  0  0  0  0  0  0  0  0  0
    3.8215   -0.5617   -3.1549 H   0  0  0  0  0  0  0  0  0  0  0  0
   -0.0352   -2.0063   -2.8307 H   0  0  0  0  0  0  0  0  0  0  0  0
   -3.2456   -2.1878    0.1902 H   0  0  0  0  0  0  0  0  0  0  0  0
   -3.3917   -0.9440   -1.0608 H   0  0  0  0  0  0  0  0  0  0  0  0
  1  2  1  0
  2  3  1  0
  3  4  1  0
  4  5  1  0
  5  6  1  0
  6  7  1  0
  7  8  2  0
  8  9  1  0
  9 10  2  0
 10 11  1  0
 11 12  2  0
 11 13  1  0
 10 14  1  0
 14 15  1  0
 15 16  2  0
 16 17  1  0
 17 18  2  0
 18 19  1  0
 19 20  2  0
 20 21  1  0
 14 22  1  0
 22 23  1  0
 23 24  3  0
 22 25  1  0
 25 26  2  0
 25 27  1  0
  6 28  1  0
 28  2  1  0
 13  7  1  0
 20 15  1  0
 27  9  1  0
  1 29  1  0
  1 30  1  0
  1 31  1  0
  2 32  1  0
  3 33  1  0
  3 34  1  0
  4 35  1  0
  4 36  1  0
  5 37  1  0
  5 38  1  0
 13 39  1  0
 14 40  1  0
 16 41  1  0
 17 42  1  0
 18 43  1  0
 19 44  1  0
 22 45  1  0
 27 46  1  0
 28 47  1  0
 28 48  1  0
M  END
$$$$
