
     RDKit          3D

 59 62  0  0  0  0  0  0  0  0999 V2000
    2.0868   -3.1928    0.0348 O   0  0  0  0  0  0  0  0  0  0  0  0
    1.9640   -2.0590   -0.4154 C   0  0  0  0  0  0  0  0  0  0  0  0
    2.9471   -0.9402   -0.1577 C   0  0  0  0  0  0  0  0  0  0  0  0
    4.1266   -1.4302    0.6728 C   0  0  0  0  0  0  0  0  0  0  0  0
    5.0496   -0.3363    0.9617 N   0  0  0  0  0  0  0  0  0  0  0  0
    6.0822   -0.1460    0.0354 C   0  0  0  0  0  0  0  0  0  0  0  0
    5.8978   -0.4001   -1.2887 N   0  0  0  0  0  0  0  0  0  0  0  0
    6.9231   -0.1859   -2.1436 C   0  0  0  0  0  0  0  0  0  0  0  0
    8.1650    0.2614   -1.8688 N   0  0  0  0  0  0  0  0  0  0  0  0
    8.2977    0.4933   -0.5561 C   0  0  0  0  0  0  0  0  0  0  0  0
    9.4106    0.9471    0.0894 N   0  0  0  0  0  0  0  0  0  0  0  0
    9.1101    1.0309    1.4221 C   0  0  0  0  0  0  0  0  0  0  0  0
    7.8719    0.6593    1.6716 N   0  0  0  0  0  0  0  0  0  0  0  0
    7.3483    0.3258    0.4360 C   0  0  0  0  0  0  0  0  0  0  0  0
    0.8979   -1.6633   -1.1989 N   0  0  0  0  0  0  0  0  0  0  0  0
   -0.0916   -2.6175   -1.6521 C   0  0  0  0  0  0  0  0  0  0  0  0
   -1.3935   -1.9432   -2.0818 C   0  0  0  0  0  0  0  0  0  0  0  0
   -2.0981   -1.1319   -0.9776 C   0  0  0  0  0  0  0  0  0  0  0  0
   -2.5031   -1.9731    0.2361 C   0  0  0  0  0  0  0  0  0  0  0  0
   -3.1734   -1.1119    1.3191 C   0  0  0  0  0  0  0  0  0  0  0  0
   -3.8711    0.0734    0.7959 N   0  0  0  0  0  0  0  0  0  0  0  0
   -4.8606    0.5598    1.7699 C   0  0  0  0  0  0  0  0  0  0  0  0
   -5.3653    1.9566    1.4713 C   0  0  0  0  0  0  0  0  0  0  0  0
   -4.4659    3.0238    1.3256 C   0  0  0  0  0  0  0  0  0  0  0  0
   -4.9300    4.3147    1.0692 C   0  0  0  0  0  0  0  0  0  0  0  0
   -6.2984    4.5543    0.9606 C   0  0  0  0  0  0  0  0  0  0  0  0
   -7.2030    3.5042    1.1085 C   0  0  0  0  0  0  0  0  0  0  0  0
   -6.7401    2.2119    1.3648 C   0  0  0  0  0  0  0  0  0  0  0  0
   -4.4534   -0.1932   -0.5184 C   0  0  0  0  0  0  0  0  0  0  0  0
   -3.3416   -0.4196   -1.5519 C   0  0  0  0  0  0  0  0  0  0  0  0
    3.2817   -0.5461   -1.1233 H   0  0  0  0  0  0  0  0  0  0  0  0
    2.4245   -0.1334    0.3702 H   0  0  0  0  0  0  0  0  0  0  0  0
    4.6371   -2.2766    0.1946 H   0  0  0  0  0  0  0  0  0  0  0  0
    3.7513   -1.8092    1.6318 H   0  0  0  0  0  0  0  0  0  0  0  0
    5.4507   -0.3566    1.8994 H   0  0  0  0  0  0  0  0  0  0  0  0
    6.7177   -0.4040   -3.1879 H   0  0  0  0  0  0  0  0  0  0  0  0
   10.2891    1.1725   -0.3520 H   0  0  0  0  0  0  0  0  0  0  0  0
    9.8304    1.3666    2.1569 H   0  0  0  0  0  0  0  0  0  0  0  0
    0.9887   -0.7918   -1.7069 H   0  0  0  0  0  0  0  0  0  0  0  0
   -0.2685   -3.3659   -0.8731 H   0  0  0  0  0  0  0  0  0  0  0  0
    0.3458   -3.1459   -2.5071 H   0  0  0  0  0  0  0  0  0  0  0  0
   -2.0744   -2.7167   -2.4589 H   0  0  0  0  0  0  0  0  0  0  0  0
   -1.1806   -1.2738   -2.9258 H   0  0  0  0  0  0  0  0  0  0  0  0
   -1.4048   -0.3537   -0.6292 H   0  0  0  0  0  0  0  0  0  0  0  0
   -3.1973   -2.7607   -0.0848 H   0  0  0  0  0  0  0  0  0  0  0  0
   -1.6367   -2.4748    0.6797 H   0  0  0  0  0  0  0  0  0  0  0  0
   -3.8546   -1.7610    1.8852 H   0  0  0  0  0  0  0  0  0  0  0  0
   -2.4054   -0.7676    2.0225 H   0  0  0  0  0  0  0  0  0  0  0  0
   -4.4068    0.6054    2.7694 H   0  0  0  0  0  0  0  0  0  0  0  0
   -5.7006   -0.1437    1.8428 H   0  0  0  0  0  0  0  0  0  0  0  0
   -3.3956    2.8432    1.4047 H   0  0  0  0  0  0  0  0  0  0  0  0
   -4.2225    5.1312    0.9535 H   0  0  0  0  0  0  0  0  0  0  0  0
   -6.6596    5.5595    0.7609 H   0  0  0  0  0  0  0  0  0  0  0  0
   -8.2702    3.6918    1.0250 H   0  0  0  0  0  0  0  0  0  0  0  0
   -7.4599    1.4050    1.4789 H   0  0  0  0  0  0  0  0  0  0  0  0
   -5.0646    0.6447   -0.8730 H   0  0  0  0  0  0  0  0  0  0  0  0
   -5.1161   -1.0680   -0.4782 H   0  0  0  0  0  0  0  0  0  0  0  0
   -3.0230    0.5458   -1.9665 H   0  0  0  0  0  0  0  0  0  0  0  0
   -3.7658   -0.9886   -2.3885 H   0  0  0  0  0  0  0  0  0  0  0  0
  1  2  2  0
  2  3  1  0
  3  4  1  0
  4  5  1  0
  5  6  1  0
  6  7  2  0
  7  8  1  0
  8  9  2  0
  9 10  1  0
 10 11  1  0
 11 12  1  0
 12 13  2  0
 13 14  1  0
  2 15  1  0
 15 16  1  0
 16 17  1  0
 17 18  1  0
 18 19  1  0
 19 20  1  0
 20 21  1  0
 21 22  1  0
 22 23  1  0
 23 24  2  0
 24 25  1  0
 25 26  2  0
 26 27  1  0
 27 28  2  0
 21 29  1  0
 29 30  1  0
 14  6  1  0
 30 18  1  0
 14 10  2  0
 28 23  1  0
  3 31  1  0
  3 32  1  0
  4 33  1  0
  4 34  1  0
  5 35  1  0
  8 36  1  0
 11 37  1  0
 12 38  1  0
 15 39  1  0
 16 40  1  0
 16 41  1  0
 17 42  1  0
 17 43  1  0
 18 44  1  0
 19 45  1  0
 19 46  1  0
 20 47  1  0
 20 48  1  0
 22 49  1  0
 22 50  1  0
 24 51  1  0
 25 52  1  0
 26 53  1  0
 27 54  1  0
 28 55  1  0
 29 56  1  0
 29 57  1  0
 30 58  1  0
 30 59  1  0
M  END
$$$$
