
     RDKit          3D

 41 41  0  0  0  0  0  0  0  0999 V2000
    1.7463    3.6951   -2.2386 C   0  0  0  0  0  0  0  0  0  0  0  0
    2.4273    2.4196   -2.4723 N   0  0  0  0  0  0  0  0  0  0  0  0
    3.0221    2.4192   -3.8125 C   0  0  0  0  0  0  0  0  0  0  0  0
    1.5061    1.2743   -2.3355 C   0  0  0  0  0  0  0  0  0  0  0  0
    1.0439    1.0098   -0.8930 C   0  0  0  0  0  0  0  0  0  0  0  0
    0.2349   -0.1700   -0.8997 O   0  0  0  0  0  0  0  0  0  0  0  0
   -0.3024   -0.5950    0.2884 C   0  0  0  0  0  0  0  0  0  0  0  0
   -0.0607    0.0190    1.5157 C   0  0  0  0  0  0  0  0  0  0  0  0
   -0.6462   -0.4787    2.6810 C   0  0  0  0  0  0  0  0  0  0  0  0
   -1.4856   -1.5998    2.6521 C   0  0  0  0  0  0  0  0  0  0  0  0
   -2.0580   -2.0732    3.8450 C   0  0  0  0  0  0  0  0  0  0  0  0
   -2.8961   -3.1858    3.8486 C   0  0  0  0  0  0  0  0  0  0  0  0
   -3.1726   -3.8401    2.6573 C   0  0  0  0  0  0  0  0  0  0  0  0
   -2.6102   -3.3803    1.4636 C   0  0  0  0  0  0  0  0  0  0  0  0
   -1.7526   -2.2506    1.4231 C   0  0  0  0  0  0  0  0  0  0  0  0
   -1.1445   -1.7265    0.2444 C   0  0  0  0  0  0  0  0  0  0  0  0
   -1.4612   -2.5549   -1.4594 Br  0  0  0  0  0  0  0  0  0  0  0  0
    1.4193    0.3229    0.7257 O   0  0  0  0  0  0  0  0  0  0  0  0
    0.7696   -0.0873   -0.2159 C   0  0  0  0  0  0  0  0  0  0  0  0
    1.3364   -0.7552   -1.2302 O   0  0  0  0  0  0  0  0  0  0  0  0
   -0.7696    0.0873   -0.3954 C   0  0  0  0  0  0  0  0  0  0  0  0
   -1.4193   -0.3229   -1.3370 O   0  0  0  0  0  0  0  0  0  0  0  0
   -1.3364    0.7553    0.6189 O   0  0  0  0  0  0  0  0  0  0  0  0
    0.8985    3.8424   -2.9173 H   0  0  0  0  0  0  0  0  0  0  0  0
    2.4417    4.5317   -2.3733 H   0  0  0  0  0  0  0  0  0  0  0  0
    1.3843    3.7675   -1.2084 H   0  0  0  0  0  0  0  0  0  0  0  0
    3.5854    1.4950   -3.9841 H   0  0  0  0  0  0  0  0  0  0  0  0
    2.2665    2.5157   -4.6006 H   0  0  0  0  0  0  0  0  0  0  0  0
    3.7378    3.2425   -3.9167 H   0  0  0  0  0  0  0  0  0  0  0  0
    0.6300    1.3884   -2.9884 H   0  0  0  0  0  0  0  0  0  0  0  0
    2.0098    0.3601   -2.6791 H   0  0  0  0  0  0  0  0  0  0  0  0
    1.9229    0.8568   -0.2554 H   0  0  0  0  0  0  0  0  0  0  0  0
    0.4503    1.8538   -0.5255 H   0  0  0  0  0  0  0  0  0  0  0  0
    0.5825    0.8880    1.6080 H   0  0  0  0  0  0  0  0  0  0  0  0
   -0.4354    0.0247    3.6232 H   0  0  0  0  0  0  0  0  0  0  0  0
   -1.8532   -1.5742    4.7903 H   0  0  0  0  0  0  0  0  0  0  0  0
   -3.3304   -3.5391    4.7800 H   0  0  0  0  0  0  0  0  0  0  0  0
   -3.8251   -4.7094    2.6496 H   0  0  0  0  0  0  0  0  0  0  0  0
   -2.8558   -3.9261    0.5557 H   0  0  0  0  0  0  0  0  0  0  0  0
    2.2861   -0.7948   -0.9974 H   0  0  0  0  0  0  0  0  0  0  0  0
   -2.2861    0.7948    0.3861 H   0  0  0  0  0  0  0  0  0  0  0  0
  1  2  1  0
  2  3  1  0
  2  4  1  0
  4  5  1  0
  5  6  1  0
  6  7  1  0
  7  8  2  0
  8  9  1  0
  9 10  2  0
 10 11  1  0
 11 12  2  0
 12 13  1  0
 13 14  2  0
 14 15  1  0
 15 16  2  0
 16 17  1  0
 18 19  2  0
 19 20  1  0
 19 21  1  0
 21 22  2  0
 21 23  1  0
 16  7  1  0
 15 10  1  0
  1 24  1  0
  1 25  1  0
  1 26  1  0
  3 27  1  0
  3 28  1  0
  3 29  1  0
  4 30  1  0
  4 31  1  0
  5 32  1  0
  5 33  1  0
  8 34  1  0
  9 35  1  0
 11 36  1  0
 12 37  1  0
 13 38  1  0
 14 39  1  0
 20 40  1  0
 23 41  1  0
M  END
$$$$
