
     RDKit          3D

 49 52  0  0  0  0  0  0  0  0999 V2000
    0.3165    2.9523   -2.5560 C   0  0  0  0  0  0  0  0  0  0  0  0
    0.1029    1.4586   -2.7583 C   0  0  0  0  0  0  0  0  0  0  0  0
   -0.3885    0.8118   -1.5437 N   0  0  0  0  0  0  0  0  0  0  0  0
    0.4975    0.3193   -0.5779 C   0  0  0  0  0  0  0  0  0  0  0  0
    1.8583    0.3980   -0.8398 N   0  0  0  0  0  0  0  0  0  0  0  0
    2.6804    1.0934    0.1872 C   0  0  0  0  0  0  0  0  0  0  0  0
    4.1805    0.8143    0.0236 C   0  0  0  0  0  0  0  0  0  0  0  0
    4.4793   -0.6188    0.0985 N   0  0  0  0  0  0  0  0  0  0  0  0
    5.7062   -1.0258    0.5894 C   0  0  0  0  0  0  0  0  0  0  0  0
    5.9299   -2.5101    0.7296 C   0  0  0  0  0  0  0  0  0  0  0  0
    6.5933   -0.2295    0.8946 O   0  0  0  0  0  0  0  0  0  0  0  0
    3.4081   -1.5203   -0.3432 C   0  0  0  0  0  0  0  0  0  0  0  0
    2.4765   -0.8467   -1.3618 C   0  0  0  0  0  0  0  0  0  0  0  0
    0.1032   -0.2246    0.5419 N   0  0  0  0  0  0  0  0  0  0  0  0
   -1.2341   -0.2810    0.7336 C   0  0  0  0  0  0  0  0  0  0  0  0
   -1.8982   -0.9683    2.1480 S   0  0  0  0  0  0  0  0  0  0  0  0
   -3.4864   -0.6466    1.6289 C   0  0  0  0  0  0  0  0  0  0  0  0
   -3.5296   -0.0393    0.3872 C   0  0  0  0  0  0  0  0  0  0  0  0
   -2.2077    0.1797   -0.1207 C   0  0  0  0  0  0  0  0  0  0  0  0
   -1.7772    0.8021   -1.3562 C   0  0  0  0  0  0  0  0  0  0  0  0
   -2.5782    1.2834   -2.1549 O   0  0  0  0  0  0  0  0  0  0  0  0
   -4.8261    0.3438   -0.2647 C   0  0  0  0  0  0  0  0  0  0  0  0
   -6.0279   -0.3445    0.4028 C   0  0  0  0  0  0  0  0  0  0  0  0
   -5.9339   -0.3007    1.9344 C   0  0  0  0  0  0  0  0  0  0  0  0
   -4.6808   -1.0269    2.4471 C   0  0  0  0  0  0  0  0  0  0  0  0
    0.6733    3.4129   -3.4823 H   0  0  0  0  0  0  0  0  0  0  0  0
    1.0557    3.1450   -1.7727 H   0  0  0  0  0  0  0  0  0  0  0  0
   -0.6145    3.4488   -2.2643 H   0  0  0  0  0  0  0  0  0  0  0  0
   -0.6161    1.3041   -3.5711 H   0  0  0  0  0  0  0  0  0  0  0  0
    1.0404    0.9954   -3.0812 H   0  0  0  0  0  0  0  0  0  0  0  0
    2.4986    2.1708    0.1088 H   0  0  0  0  0  0  0  0  0  0  0  0
    2.3763    0.7790    1.1936 H   0  0  0  0  0  0  0  0  0  0  0  0
    4.7461    1.3575    0.7881 H   0  0  0  0  0  0  0  0  0  0  0  0
    4.5272    1.1619   -0.9571 H   0  0  0  0  0  0  0  0  0  0  0  0
    5.0978   -2.9775    1.2627 H   0  0  0  0  0  0  0  0  0  0  0  0
    6.0548   -2.9622   -0.2577 H   0  0  0  0  0  0  0  0  0  0  0  0
    6.8400   -2.6847    1.3116 H   0  0  0  0  0  0  0  0  0  0  0  0
    3.8407   -2.4231   -0.7838 H   0  0  0  0  0  0  0  0  0  0  0  0
    2.8480   -1.8158    0.5516 H   0  0  0  0  0  0  0  0  0  0  0  0
    3.0505   -0.5801   -2.2578 H   0  0  0  0  0  0  0  0  0  0  0  0
    1.7056   -1.5576   -1.6830 H   0  0  0  0  0  0  0  0  0  0  0  0
   -4.8129    0.0820   -1.3286 H   0  0  0  0  0  0  0  0  0  0  0  0
   -4.9442    1.4321   -0.1926 H   0  0  0  0  0  0  0  0  0  0  0  0
   -6.0767   -1.3918    0.0777 H   0  0  0  0  0  0  0  0  0  0  0  0
   -6.9549    0.1356    0.0699 H   0  0  0  0  0  0  0  0  0  0  0  0
   -5.9124    0.7467    2.2616 H   0  0  0  0  0  0  0  0  0  0  0  0
   -6.8265   -0.7561    2.3779 H   0  0  0  0  0  0  0  0  0  0  0  0
   -4.5282   -0.7858    3.5052 H   0  0  0  0  0  0  0  0  0  0  0  0
   -4.8325   -2.1107    2.3715 H   0  0  0  0  0  0  0  0  0  0  0  0
  1  2  1  0
  2  3  1  0
  3  4  1  0
  4  5  1  0
  5  6  1  0
  6  7  1  0
  7  8  1  0
  8  9  1  0
  9 10  1  0
  9 11  2  0
  8 12  1  0
 12 13  1  0
  4 14  2  0
 14 15  1  0
 15 16  1  0
 16 17  1  0
 17 18  2  0
 18 19  1  0
 19 20  1  0
 20 21  2  0
 18 22  1  0
 22 23  1  0
 23 24  1  0
 24 25  1  0
 20  3  1  0
 13  5  1  0
 19 15  2  0
 25 17  1  0
  1 26  1  0
  1 27  1  0
  1 28  1  0
  2 29  1  0
  2 30  1  0
  6 31  1  0
  6 32  1  0
  7 33  1  0
  7 34  1  0
 10 35  1  0
 10 36  1  0
 10 37  1  0
 12 38  1  0
 12 39  1  0
 13 40  1  0
 13 41  1  0
 22 42  1  0
 22 43  1  0
 23 44  1  0
 23 45  1  0
 24 46  1  0
 24 47  1  0
 25 48  1  0
 25 49  1  0
M  END
$$$$
