
     RDKit          3D

 34 36  0  0  0  0  0  0  0  0999 V2000
    1.0031    1.2242   -0.1809 O   0  0  0  0  0  0  0  0  0  0  0  0
    1.1690    0.0169   -0.1112 C   0  0  0  0  0  0  0  0  0  0  0  0
    2.3703   -0.6518   -0.1822 N   0  0  0  0  0  0  0  0  0  0  0  0
    3.5680   -0.0204   -0.3463 C   0  0  0  0  0  0  0  0  0  0  0  0
    3.8327    1.2538   -0.4646 N   0  0  0  0  0  0  0  0  0  0  0  0
    5.1942    1.4270   -0.6115 C   0  0  0  0  0  0  0  0  0  0  0  0
    5.9444    0.2699   -0.6023 C   0  0  0  0  0  0  0  0  0  0  0  0
    4.9068   -1.0825   -0.4024 S   0  0  0  0  0  0  0  0  0  0  0  0
    0.0215   -0.9663    0.0713 C   0  0  0  0  0  0  0  0  0  0  0  0
   -1.2512   -0.5272    0.1424 C   0  0  0  0  0  0  0  0  0  0  0  0
   -1.7783    0.8402    0.1185 C   0  0  0  0  0  0  0  0  0  0  0  0
   -1.9986    1.5332    1.3176 C   0  0  0  0  0  0  0  0  0  0  0  0
   -2.4995    2.8362    1.2978 C   0  0  0  0  0  0  0  0  0  0  0  0
   -2.7785    3.4587    0.0826 C   0  0  0  0  0  0  0  0  0  0  0  0
   -2.5557    2.7812   -1.1148 C   0  0  0  0  0  0  0  0  0  0  0  0
   -2.0553    1.4778   -1.0990 C   0  0  0  0  0  0  0  0  0  0  0  0
   -2.5671   -1.6378    0.2945 S   0  0  0  0  0  6  0  0  0  0  0  0
   -3.5352   -1.4397   -0.7695 O   0  0  0  0  0  0  0  0  0  0  0  0
   -2.9979   -1.6870    1.6815 O   0  0  0  0  0  0  0  0  0  0  0  0
   -1.8050   -3.1931   -0.0379 C   0  0  0  0  0  0  0  0  0  0  0  0
   -0.5070   -3.2206    0.7138 C   0  0  0  0  0  0  0  0  0  0  0  0
    0.4179   -2.2996    0.1373 O   0  0  0  0  0  0  0  0  0  0  0  0
    2.3817   -1.6587   -0.1125 H   0  0  0  0  0  0  0  0  0  0  0  0
    5.5893    2.4296   -0.7226 H   0  0  0  0  0  0  0  0  0  0  0  0
    7.0146    0.1594   -0.7001 H   0  0  0  0  0  0  0  0  0  0  0  0
   -1.7856    1.0660    2.2766 H   0  0  0  0  0  0  0  0  0  0  0  0
   -2.6676    3.3670    2.2311 H   0  0  0  0  0  0  0  0  0  0  0  0
   -3.1639    4.4747    0.0682 H   0  0  0  0  0  0  0  0  0  0  0  0
   -2.7666    3.2693   -2.0625 H   0  0  0  0  0  0  0  0  0  0  0  0
   -1.8852    0.9682   -2.0443 H   0  0  0  0  0  0  0  0  0  0  0  0
   -1.6516   -3.2677   -1.1191 H   0  0  0  0  0  0  0  0  0  0  0  0
   -2.4879   -3.9807    0.2916 H   0  0  0  0  0  0  0  0  0  0  0  0
   -0.0565   -4.2151    0.6306 H   0  0  0  0  0  0  0  0  0  0  0  0
   -0.6191   -3.0053    1.7833 H   0  0  0  0  0  0  0  0  0  0  0  0
  1  2  2  0
  2  3  1  0
  3  4  1  0
  4  5  2  0
  5  6  1  0
  6  7  2  0
  7  8  1  0
  2  9  1  0
  9 10  2  0
 10 11  1  0
 11 12  2  0
 12 13  1  0
 13 14  2  0
 14 15  1  0
 15 16  2  0
 10 17  1  0
 17 18  2  0
 17 19  2  0
 17 20  1  0
 20 21  1  0
 21 22  1  0
  8  4  1  0
 22  9  1  0
 16 11  1  0
  3 23  1  0
  6 24  1  0
  7 25  1  0
 12 26  1  0
 13 27  1  0
 14 28  1  0
 15 29  1  0
 16 30  1  0
 20 31  1  0
 20 32  1  0
 21 33  1  0
 21 34  1  0
M  END
$$$$
