
     RDKit          3D

 48 49  0  0  0  0  0  0  0  0999 V2000
    3.3776   -3.0058    0.4391 C   0  0  0  0  0  0  0  0  0  0  0  0
    1.9255   -2.7261    0.1710 C   0  0  0  0  0  0  0  0  0  0  0  0
    1.3872   -3.0608   -1.0812 C   0  0  0  0  0  0  0  0  0  0  0  0
    0.0477   -2.7976   -1.3746 C   0  0  0  0  0  0  0  0  0  0  0  0
   -0.7812   -2.2118   -0.4141 C   0  0  0  0  0  0  0  0  0  0  0  0
   -2.1870   -1.8867   -0.7877 C   0  0  0  0  0  0  0  0  0  0  0  0
   -2.7126   -2.4370   -1.7491 O   0  0  0  0  0  0  0  0  0  0  0  0
   -2.8045   -0.9052   -0.0394 N   0  0  0  0  0  0  0  0  0  0  0  0
   -4.0083   -0.2529   -0.5235 C   0  0  0  0  0  0  0  0  0  0  0  0
   -3.6579    0.9244   -1.4567 C   0  0  0  0  0  0  0  0  0  0  0  0
   -2.6527    1.8556   -0.8831 N   0  0  0  0  0  0  0  0  0  0  0  0
   -3.2031    2.6197    0.2397 C   0  0  0  0  0  0  0  0  0  0  0  0
   -2.1844    2.7761   -1.9229 C   0  0  0  0  0  0  0  0  0  0  0  0
   -0.2653   -1.9214    0.8521 C   0  0  0  0  0  0  0  0  0  0  0  0
    1.0859   -2.1400    1.1339 C   0  0  0  0  0  0  0  0  0  0  0  0
    1.6107   -1.7354    2.3974 N   0  0  0  0  0  0  0  0  0  0  0  0
    1.5242   -0.1117    2.8636 S   0  0  0  0  0  6  0  0  0  0  0  0
    2.4277    0.0279    3.9868 O   0  0  0  0  0  0  0  0  0  0  0  0
    0.1358    0.2856    2.9687 O   0  0  0  0  0  0  0  0  0  0  0  0
    2.2415    0.7540    1.4852 C   0  0  0  0  0  0  0  0  0  0  0  0
    3.6283    0.9232    1.4258 C   0  0  0  0  0  0  0  0  0  0  0  0
    4.1893    1.6114    0.3500 C   0  0  0  0  0  0  0  0  0  0  0  0
    3.3678    2.1352   -0.6501 C   0  0  0  0  0  0  0  0  0  0  0  0
    1.9823    1.9824   -0.5751 C   0  0  0  0  0  0  0  0  0  0  0  0
    1.4128    1.2985    0.4983 C   0  0  0  0  0  0  0  0  0  0  0  0
    3.4792   -3.7249    1.2582 H   0  0  0  0  0  0  0  0  0  0  0  0
    3.8750   -3.4323   -0.4385 H   0  0  0  0  0  0  0  0  0  0  0  0
    3.9051   -2.0826    0.6968 H   0  0  0  0  0  0  0  0  0  0  0  0
    2.0106   -3.5174   -1.8478 H   0  0  0  0  0  0  0  0  0  0  0  0
   -0.3462   -3.0426   -2.3596 H   0  0  0  0  0  0  0  0  0  0  0  0
   -2.2135   -0.2948    0.5116 H   0  0  0  0  0  0  0  0  0  0  0  0
   -4.6349   -0.9765   -1.0557 H   0  0  0  0  0  0  0  0  0  0  0  0
   -4.5641    0.0931    0.3533 H   0  0  0  0  0  0  0  0  0  0  0  0
   -4.5750    1.4573   -1.7379 H   0  0  0  0  0  0  0  0  0  0  0  0
   -3.2438    0.4925   -2.3775 H   0  0  0  0  0  0  0  0  0  0  0  0
   -2.4525    3.3145    0.6337 H   0  0  0  0  0  0  0  0  0  0  0  0
   -3.4726    1.9625    1.0722 H   0  0  0  0  0  0  0  0  0  0  0  0
   -4.0883    3.1981   -0.0482 H   0  0  0  0  0  0  0  0  0  0  0  0
   -1.4161    3.4483   -1.5242 H   0  0  0  0  0  0  0  0  0  0  0  0
   -2.9977    3.3850   -2.3340 H   0  0  0  0  0  0  0  0  0  0  0  0
   -1.7158    2.2229   -2.7445 H   0  0  0  0  0  0  0  0  0  0  0  0
   -0.9145   -1.5298    1.6298 H   0  0  0  0  0  0  0  0  0  0  0  0
    2.4546   -2.1872    2.7431 H   0  0  0  0  0  0  0  0  0  0  0  0
    4.2726    0.5288    2.2080 H   0  0  0  0  0  0  0  0  0  0  0  0
    5.2668    1.7469    0.2924 H   0  0  0  0  0  0  0  0  0  0  0  0
    3.8080    2.6728   -1.4868 H   0  0  0  0  0  0  0  0  0  0  0  0
    1.3446    2.3999   -1.3507 H   0  0  0  0  0  0  0  0  0  0  0  0
    0.3310    1.1954    0.5524 H   0  0  0  0  0  0  0  0  0  0  0  0
  1  2  1  0
  2  3  2  0
  3  4  1  0
  4  5  2  0
  5  6  1  0
  6  7  2  0
  6  8  1  0
  8  9  1  0
  9 10  1  0
 10 11  1  0
 11 12  1  0
 11 13  1  0
  5 14  1  0
 14 15  2  0
 15 16  1  0
 16 17  1  0
 17 18  2  0
 17 19  2  0
 17 20  1  0
 20 21  2  0
 21 22  1  0
 22 23  2  0
 23 24  1  0
 24 25  2  0
 15  2  1  0
 25 20  1  0
  1 26  1  0
  1 27  1  0
  1 28  1  0
  3 29  1  0
  4 30  1  0
  8 31  1  0
  9 32  1  0
  9 33  1  0
 10 34  1  0
 10 35  1  0
 12 36  1  0
 12 37  1  0
 12 38  1  0
 13 39  1  0
 13 40  1  0
 13 41  1  0
 14 42  1  0
 16 43  1  0
 21 44  1  0
 22 45  1  0
 23 46  1  0
 24 47  1  0
 25 48  1  0
M  END
$$$$
