
     RDKit          3D

 55 58  0  0  0  0  0  0  0  0999 V2000
    6.6878   -1.6684   -0.5580 C   0  0  0  0  0  0  0  0  0  0  0  0
    5.7195   -1.6995    0.6100 C   0  0  0  0  0  0  0  0  0  0  0  0
    5.2397   -0.3020    0.9525 C   0  0  0  0  0  0  0  0  0  0  0  0
    5.8813    0.3863    1.7485 O   0  0  0  0  0  0  0  0  0  0  0  0
    4.1020    0.1710    0.3232 N   0  0  0  0  0  0  0  0  0  0  0  0
    3.5919    1.4999    0.6752 C   0  0  0  0  0  0  0  0  0  0  0  0
    2.0580    1.5253    0.7488 C   0  0  0  0  0  0  0  0  0  0  0  0
    1.4017    1.0686   -0.5103 N   0  0  0  0  0  0  0  0  0  0  0  0
    0.1127    0.5692   -0.3496 C   0  0  0  0  0  0  0  0  0  0  0  0
   -0.0231   -0.7215   -0.1910 N   0  0  0  0  0  0  0  0  0  0  0  0
   -1.2814   -1.1705   -0.0021 C   0  0  0  0  0  0  0  0  0  0  0  0
   -1.6039   -2.8301    0.2304 S   0  0  0  0  0  0  0  0  0  0  0  0
   -3.2718   -2.5409    0.4003 C   0  0  0  0  0  0  0  0  0  0  0  0
   -3.5974   -1.2035    0.2660 C   0  0  0  0  0  0  0  0  0  0  0  0
   -2.4235   -0.4108    0.0435 C   0  0  0  0  0  0  0  0  0  0  0  0
   -2.2878    1.0210   -0.1336 C   0  0  0  0  0  0  0  0  0  0  0  0
   -3.2687    1.7593   -0.0902 O   0  0  0  0  0  0  0  0  0  0  0  0
   -0.9720    1.4644   -0.3546 N   0  0  0  0  0  0  0  0  0  0  0  0
   -0.7676    2.8972   -0.6582 C   0  0  0  0  0  0  0  0  0  0  0  0
   -1.1309    3.8041    0.5208 C   0  0  0  0  0  0  0  0  0  0  0  0
   -1.4783    3.3312   -1.9451 C   0  0  0  0  0  0  0  0  0  0  0  0
   -5.0119   -0.7156    0.3853 C   0  0  0  0  0  0  0  0  0  0  0  0
   -6.0263   -1.8668    0.2857 C   0  0  0  0  0  0  0  0  0  0  0  0
   -5.5945   -3.0831    1.1167 C   0  0  0  0  0  0  0  0  0  0  0  0
   -4.2496   -3.6495    0.6360 C   0  0  0  0  0  0  0  0  0  0  0  0
    2.3036    0.2939   -1.3999 C   0  0  0  0  0  0  0  0  0  0  0  0
    3.2726   -0.6005   -0.6129 C   0  0  0  0  0  0  0  0  0  0  0  0
    6.2250   -1.2506   -1.4570 H   0  0  0  0  0  0  0  0  0  0  0  0
    7.5614   -1.0513   -0.3221 H   0  0  0  0  0  0  0  0  0  0  0  0
    7.0372   -2.6791   -0.7899 H   0  0  0  0  0  0  0  0  0  0  0  0
    6.2187   -2.1084    1.4965 H   0  0  0  0  0  0  0  0  0  0  0  0
    4.8776   -2.3661    0.4043 H   0  0  0  0  0  0  0  0  0  0  0  0
    3.9456    2.1915   -0.0989 H   0  0  0  0  0  0  0  0  0  0  0  0
    4.0090    1.8361    1.6300 H   0  0  0  0  0  0  0  0  0  0  0  0
    1.7261    2.5433    0.9769 H   0  0  0  0  0  0  0  0  0  0  0  0
    1.7383    0.8806    1.5782 H   0  0  0  0  0  0  0  0  0  0  0  0
    0.2943    3.0713   -0.8540 H   0  0  0  0  0  0  0  0  0  0  0  0
   -0.6260    3.4734    1.4346 H   0  0  0  0  0  0  0  0  0  0  0  0
   -2.2058    3.8206    0.7218 H   0  0  0  0  0  0  0  0  0  0  0  0
   -0.8213    4.8352    0.3186 H   0  0  0  0  0  0  0  0  0  0  0  0
   -1.2123    2.6674   -2.7749 H   0  0  0  0  0  0  0  0  0  0  0  0
   -1.1818    4.3495   -2.2197 H   0  0  0  0  0  0  0  0  0  0  0  0
   -2.5674    3.3250   -1.8474 H   0  0  0  0  0  0  0  0  0  0  0  0
   -5.1265   -0.2141    1.3542 H   0  0  0  0  0  0  0  0  0  0  0  0
   -5.2325    0.0195   -0.3964 H   0  0  0  0  0  0  0  0  0  0  0  0
   -7.0099   -1.5158    0.6176 H   0  0  0  0  0  0  0  0  0  0  0  0
   -6.1326   -2.1709   -0.7637 H   0  0  0  0  0  0  0  0  0  0  0  0
   -6.3601   -3.8652    1.0622 H   0  0  0  0  0  0  0  0  0  0  0  0
   -5.5136   -2.7865    2.1704 H   0  0  0  0  0  0  0  0  0  0  0  0
   -3.8690   -4.3614    1.3772 H   0  0  0  0  0  0  0  0  0  0  0  0
   -4.4004   -4.1959   -0.3031 H   0  0  0  0  0  0  0  0  0  0  0  0
    1.7282   -0.3081   -2.1137 H   0  0  0  0  0  0  0  0  0  0  0  0
    2.8754    1.0124   -2.0006 H   0  0  0  0  0  0  0  0  0  0  0  0
    2.7226   -1.3398   -0.0198 H   0  0  0  0  0  0  0  0  0  0  0  0
    3.9179   -1.1414   -1.3101 H   0  0  0  0  0  0  0  0  0  0  0  0
  1  2  1  0
  2  3  1  0
  3  4  2  0
  3  5  1  0
  5  6  1  0
  6  7  1  0
  7  8  1  0
  8  9  1  0
  9 10  2  0
 10 11  1  0
 11 12  1  0
 12 13  1  0
 13 14  2  0
 14 15  1  0
 15 16  1  0
 16 17  2  0
 16 18  1  0
 18 19  1  0
 19 20  1  0
 19 21  1  0
 14 22  1  0
 22 23  1  0
 23 24  1  0
 24 25  1  0
  8 26  1  0
 26 27  1  0
 27  5  1  0
 18  9  1  0
 15 11  2  0
 25 13  1  0
  1 28  1  0
  1 29  1  0
  1 30  1  0
  2 31  1  0
  2 32  1  0
  6 33  1  0
  6 34  1  0
  7 35  1  0
  7 36  1  0
 19 37  1  0
 20 38  1  0
 20 39  1  0
 20 40  1  0
 21 41  1  0
 21 42  1  0
 21 43  1  0
 22 44  1  0
 22 45  1  0
 23 46  1  0
 23 47  1  0
 24 48  1  0
 24 49  1  0
 25 50  1  0
 25 51  1  0
 26 52  1  0
 26 53  1  0
 27 54  1  0
 27 55  1  0
M  END
$$$$
