
     RDKit          3D

 56 57  0  0  0  0  0  0  0  0999 V2000
   -6.5773    2.7391    0.6404 C   0  0  0  0  0  0  0  0  0  0  0  0
   -5.2359    2.8016    1.0125 O   0  0  0  0  0  0  0  0  0  0  0  0
   -4.3770    1.7448    0.6570 C   0  0  0  0  0  0  0  0  0  0  0  0
   -4.8401    0.6629   -0.0458 C   0  0  0  0  0  0  0  0  0  0  0  0
   -3.9818   -0.3492   -0.3777 C   0  0  0  0  0  0  0  0  0  0  0  0
   -2.6404   -0.3470   -0.0384 C   0  0  0  0  0  0  0  0  0  0  0  0
   -1.8175   -1.5076   -0.4453 C   0  0  0  0  0  0  0  0  0  0  0  0
   -0.4111   -1.4910    0.0315 C   0  0  0  0  0  0  0  0  0  0  0  0
    0.3098   -0.3425   -0.4771 N   0  0  0  0  0  0  0  0  0  0  0  0
    1.6947   -0.1240   -0.1254 C   0  0  0  0  0  0  0  0  0  0  0  0
    2.1772   -0.9844    0.6230 O   0  0  0  0  0  0  0  0  0  0  0  0
    2.4176    1.0496   -0.6437 C   0  0  0  0  0  0  0  0  0  0  0  0
    3.6694    1.2548   -0.3586 C   0  0  0  0  0  0  0  0  0  0  0  0
    4.4681    0.3361    0.4879 C   0  0  0  0  0  0  0  0  0  0  0  0
    4.7410   -0.9675    0.1616 C   0  0  0  0  0  0  0  0  0  0  0  0
    5.4670   -1.8112    0.9765 C   0  0  0  0  0  0  0  0  0  0  0  0
    5.9399   -1.3296    2.1662 C   0  0  0  0  0  0  0  0  0  0  0  0
    5.6929   -0.0245    2.5400 C   0  0  0  0  0  0  0  0  0  0  0  0
    4.9611    0.7876    1.6952 C   0  0  0  0  0  0  0  0  0  0  0  0
    4.5081    2.7327   -0.9886 S   0  0  0  0  0  0  0  0  0  0  0  0
    3.4312    3.5406   -2.1732 C   0  0  0  0  0  0  0  0  0  0  0  0
    2.3947    2.5193   -2.5906 C   0  0  0  0  0  0  0  0  0  0  0  0
    1.7512    1.9642   -1.4585 O   0  0  0  0  0  0  0  0  0  0  0  0
   -2.5072   -2.7086    0.0024 N   0  0  0  0  0  0  0  0  0  0  0  0
   -2.5820   -2.7621    1.4457 C   0  0  0  0  0  0  0  0  0  0  0  0
   -1.9152   -3.9036   -0.5644 C   0  0  0  0  0  0  0  0  0  0  0  0
   -2.1973    0.7429    0.6641 C   0  0  0  0  0  0  0  0  0  0  0  0
   -3.0571    1.7895    1.0141 C   0  0  0  0  0  0  0  0  0  0  0  0
    0.6915    0.0000    0.0000 Cl  0  0  0  0  0  0  0  0  0  0  0  0
   -6.7579    2.4211   -0.4044 H   0  0  0  0  0  0  0  0  0  0  0  0
   -7.0256    3.7719    0.7012 H   0  0  0  0  0  0  0  0  0  0  0  0
   -7.1599    2.0435    1.3111 H   0  0  0  0  0  0  0  0  0  0  0  0
   -5.8689    0.5964   -0.3400 H   0  0  0  0  0  0  0  0  0  0  0  0
   -4.3594   -1.1948   -0.9307 H   0  0  0  0  0  0  0  0  0  0  0  0
   -1.8139   -1.5981   -1.5820 H   0  0  0  0  0  0  0  0  0  0  0  0
    0.0715   -2.4323   -0.2935 H   0  0  0  0  0  0  0  0  0  0  0  0
   -0.4102   -1.4037    1.1403 H   0  0  0  0  0  0  0  0  0  0  0  0
   -0.1205    0.3645   -1.1134 H   0  0  0  0  0  0  0  0  0  0  0  0
    4.3918   -1.3719   -0.7885 H   0  0  0  0  0  0  0  0  0  0  0  0
    5.6683   -2.8426    0.6942 H   0  0  0  0  0  0  0  0  0  0  0  0
    6.5233   -1.9829    2.8372 H   0  0  0  0  0  0  0  0  0  0  0  0
    6.0901    0.3015    3.4887 H   0  0  0  0  0  0  0  0  0  0  0  0
    4.7820    1.8051    2.0119 H   0  0  0  0  0  0  0  0  0  0  0  0
    2.9408    4.4487   -1.7645 H   0  0  0  0  0  0  0  0  0  0  0  0
    4.0369    3.7918   -3.0767 H   0  0  0  0  0  0  0  0  0  0  0  0
    2.9271    1.7716   -3.2080 H   0  0  0  0  0  0  0  0  0  0  0  0
    1.6724    3.0276   -3.2641 H   0  0  0  0  0  0  0  0  0  0  0  0
   -1.6620   -3.2541    1.8490 H   0  0  0  0  0  0  0  0  0  0  0  0
   -3.5108   -3.2550    1.7948 H   0  0  0  0  0  0  0  0  0  0  0  0
   -2.6365   -1.7096    1.8228 H   0  0  0  0  0  0  0  0  0  0  0  0
   -1.3348   -3.7280   -1.4725 H   0  0  0  0  0  0  0  0  0  0  0  0
   -1.3064   -4.4032    0.2341 H   0  0  0  0  0  0  0  0  0  0  0  0
   -2.7691   -4.6114   -0.7635 H   0  0  0  0  0  0  0  0  0  0  0  0
   -1.1682    0.7867    0.9580 H   0  0  0  0  0  0  0  0  0  0  0  0
   -2.6845    2.6441    1.5719 H   0  0  0  0  0  0  0  0  0  0  0  0
   -0.6915    0.0000    0.0000 H   0  0  0  0  0  0  0  0  0  0  0  0
  1  2  1  0
  2  3  1  0
  3  4  2  0
  4  5  1  0
  5  6  2  0
  6  7  1  0
  7  8  1  0
  8  9  1  0
  9 10  1  0
 10 11  2  0
 10 12  1  0
 12 13  2  0
 13 14  1  0
 14 15  2  0
 15 16  1  0
 16 17  2  0
 17 18  1  0
 18 19  2  0
 13 20  1  0
 20 21  1  0
 21 22  1  0
 22 23  1  0
  7 24  1  0
 24 25  1  0
 24 26  1  0
  6 27  1  0
 27 28  2  0
 28  3  1  0
 23 12  1  0
 19 14  1  0
  1 30  1  0
  1 31  1  0
  1 32  1  0
  4 33  1  0
  5 34  1  0
  7 35  1  0
  8 36  1  0
  8 37  1  0
  9 38  1  0
 15 39  1  0
 16 40  1  0
 17 41  1  0
 18 42  1  0
 19 43  1  0
 21 44  1  0
 21 45  1  0
 22 46  1  0
 22 47  1  0
 25 48  1  0
 25 49  1  0
 25 50  1  0
 26 51  1  0
 26 52  1  0
 26 53  1  0
 27 54  1  0
 28 55  1  0
 29 56  1  0
M  END
$$$$
