
     RDKit          3D

 53 56  0  0  0  0  0  0  0  0999 V2000
   -5.5084    2.5983    2.6641 C   0  0  0  0  0  0  0  0  0  0  0  0
   -5.5144    1.4107    1.7769 C   0  0  0  0  0  0  0  0  0  0  0  0
   -6.6057    0.5981    1.4257 C   0  0  0  0  0  0  0  0  0  0  0  0
   -6.0921   -0.3681    0.5859 C   0  0  0  0  0  0  0  0  0  0  0  0
   -6.7964   -1.4887   -0.0865 C   0  0  0  0  0  0  0  0  0  0  0  0
   -4.7313   -0.1039    0.4701 N   0  0  0  0  0  0  0  0  0  0  0  0
   -3.7424   -0.8134   -0.2903 C   0  0  0  0  0  0  0  0  0  0  0  0
   -2.4295   -0.3687   -0.2468 C   0  0  0  0  0  0  0  0  0  0  0  0
   -1.4859   -1.0546   -0.9908 C   0  0  0  0  0  0  0  0  0  0  0  0
   -0.1487   -0.6739   -0.9880 N   0  0  0  0  0  0  0  0  0  0  0  0
    0.7916   -1.5601   -1.6898 C   0  0  0  0  0  0  0  0  0  0  0  0
    2.2457   -1.1411   -1.4079 C   0  0  0  0  0  0  0  0  0  0  0  0
    2.5156    0.2603   -1.7534 N   0  0  0  0  0  0  0  0  0  0  0  0
    3.7798    0.7894   -1.9571 C   0  0  0  0  0  0  0  0  0  0  0  0
    3.9482    1.9601   -2.3106 O   0  0  0  0  0  0  0  0  0  0  0  0
    4.9950   -0.1341   -1.7699 C   0  0  0  0  0  0  0  0  0  0  0  0
    5.0654   -0.8638   -0.5567 O   0  0  0  0  0  0  0  0  0  0  0  0
    5.3490   -0.1780    0.5916 C   0  0  0  0  0  0  0  0  0  0  0  0
    5.6388    1.1830    0.6942 C   0  0  0  0  0  0  0  0  0  0  0  0
    5.9059    1.7516    1.9440 C   0  0  0  0  0  0  0  0  0  0  0  0
    5.8873    0.9650    3.0942 C   0  0  0  0  0  0  0  0  0  0  0  0
    5.6019   -0.3941    2.9975 C   0  0  0  0  0  0  0  0  0  0  0  0
    5.3350   -0.9607    1.7500 C   0  0  0  0  0  0  0  0  0  0  0  0
    1.3450    1.1304   -1.8824 C   0  0  0  0  0  0  0  0  0  0  0  0
    0.2000    0.7577   -0.9210 C   0  0  0  0  0  0  0  0  0  0  0  0
   -1.8439   -2.1376   -1.7043 N   0  0  0  0  0  0  0  0  0  0  0  0
   -3.1336   -2.4969   -1.6874 C   0  0  0  0  0  0  0  0  0  0  0  0
   -4.1151   -1.8864   -1.0195 N   0  0  0  0  0  0  0  0  0  0  0  0
   -4.3829    0.9947    1.2044 N   0  0  0  0  0  0  0  0  0  0  0  0
   -4.9823    2.3743    3.5976 H   0  0  0  0  0  0  0  0  0  0  0  0
   -6.5281    2.9089    2.9138 H   0  0  0  0  0  0  0  0  0  0  0  0
   -5.0087    3.4426    2.1782 H   0  0  0  0  0  0  0  0  0  0  0  0
   -7.6353    0.6986    1.7405 H   0  0  0  0  0  0  0  0  0  0  0  0
   -7.8613   -1.4827    0.1706 H   0  0  0  0  0  0  0  0  0  0  0  0
   -6.3920   -2.4550    0.2300 H   0  0  0  0  0  0  0  0  0  0  0  0
   -6.7254   -1.4018   -1.1750 H   0  0  0  0  0  0  0  0  0  0  0  0
   -2.1453    0.4747    0.3697 H   0  0  0  0  0  0  0  0  0  0  0  0
    0.6688   -2.5977   -1.3554 H   0  0  0  0  0  0  0  0  0  0  0  0
    0.6041   -1.5222   -2.7707 H   0  0  0  0  0  0  0  0  0  0  0  0
    2.9298   -1.7934   -1.9586 H   0  0  0  0  0  0  0  0  0  0  0  0
    2.4553   -1.2498   -0.3374 H   0  0  0  0  0  0  0  0  0  0  0  0
    4.9647   -0.8641   -2.5879 H   0  0  0  0  0  0  0  0  0  0  0  0
    5.9184    0.4365   -1.9309 H   0  0  0  0  0  0  0  0  0  0  0  0
    5.6668    1.8376   -0.1711 H   0  0  0  0  0  0  0  0  0  0  0  0
    6.1284    2.8135    2.0169 H   0  0  0  0  0  0  0  0  0  0  0  0
    6.0953    1.4112    4.0630 H   0  0  0  0  0  0  0  0  0  0  0  0
    5.5861   -1.0137    3.8900 H   0  0  0  0  0  0  0  0  0  0  0  0
    5.1124   -2.0225    1.6809 H   0  0  0  0  0  0  0  0  0  0  0  0
    1.0015    1.0372   -2.9201 H   0  0  0  0  0  0  0  0  0  0  0  0
    1.6270    2.1771   -1.7260 H   0  0  0  0  0  0  0  0  0  0  0  0
    0.5042    0.9834    0.1080 H   0  0  0  0  0  0  0  0  0  0  0  0
   -0.6539    1.4006   -1.1659 H   0  0  0  0  0  0  0  0  0  0  0  0
   -3.4044   -3.3683   -2.2736 H   0  0  0  0  0  0  0  0  0  0  0  0
  1  2  1  0
  2  3  1  0
  3  4  2  0
  4  5  1  0
  4  6  1  0
  6  7  1  0
  7  8  2  0
  8  9  1  0
  9 10  1  0
 10 11  1  0
 11 12  1  0
 12 13  1  0
 13 14  1  0
 14 15  2  0
 14 16  1  0
 16 17  1  0
 17 18  1  0
 18 19  2  0
 19 20  1  0
 20 21  2  0
 21 22  1  0
 22 23  2  0
 13 24  1  0
 24 25  1  0
  9 26  2  0
 26 27  1  0
 27 28  2  0
  6 29  1  0
 29  2  2  0
 28  7  1  0
 25 10  1  0
 23 18  1  0
  1 30  1  0
  1 31  1  0
  1 32  1  0
  3 33  1  0
  5 34  1  0
  5 35  1  0
  5 36  1  0
  8 37  1  0
 11 38  1  0
 11 39  1  0
 12 40  1  0
 12 41  1  0
 16 42  1  0
 16 43  1  0
 19 44  1  0
 20 45  1  0
 21 46  1  0
 22 47  1  0
 23 48  1  0
 24 49  1  0
 24 50  1  0
 25 51  1  0
 25 52  1  0
 27 53  1  0
M  END
$$$$
