
     RDKit          3D

 52 55  0  0  0  0  0  0  0  0999 V2000
    7.2575    0.1105    2.1013 C   0  0  0  0  0  0  0  0  0  0  0  0
    5.8382    0.0363    2.0362 O   0  0  0  0  0  0  0  0  0  0  0  0
    5.2685    0.1729    0.7991 C   0  0  0  0  0  0  0  0  0  0  0  0
    5.9504    0.3720   -0.3987 C   0  0  0  0  0  0  0  0  0  0  0  0
    5.2361    0.5006   -1.5890 C   0  0  0  0  0  0  0  0  0  0  0  0
    3.8412    0.4243   -1.5866 C   0  0  0  0  0  0  0  0  0  0  0  0
    3.1329    0.2190   -0.3961 C   0  0  0  0  0  0  0  0  0  0  0  0
    1.6947    0.1090   -0.4146 N   0  0  0  0  0  0  0  0  0  0  0  0
    0.9640    1.0657   -1.1466 C   0  0  0  0  0  0  0  0  0  0  0  0
    1.4794    1.9315   -1.8616 O   0  0  0  0  0  0  0  0  0  0  0  0
   -0.5694    0.9918   -1.1212 C   0  0  0  0  0  0  0  0  0  0  0  0
   -1.1459    0.3405    0.0697 N   0  0  0  0  0  0  0  0  0  0  0  0
   -2.6092    0.1784   -0.0477 C   0  0  0  0  0  0  0  0  0  0  0  0
   -3.3800    1.5096   -0.0027 C   0  0  0  0  0  0  0  0  0  0  0  0
   -4.8742    1.2823   -0.0182 C   0  0  0  0  0  0  0  0  0  0  0  0
   -5.5779    1.2715   -1.2326 C   0  0  0  0  0  0  0  0  0  0  0  0
   -6.9544    1.0417   -1.2467 C   0  0  0  0  0  0  0  0  0  0  0  0
   -7.6251    0.8203   -0.0495 C   0  0  0  0  0  0  0  0  0  0  0  0
   -8.9459    0.5985   -0.0647 F   0  0  0  0  0  0  0  0  0  0  0  0
   -6.9453    0.8221    1.1623 C   0  0  0  0  0  0  0  0  0  0  0  0
   -5.5691    1.0526    1.1798 C   0  0  0  0  0  0  0  0  0  0  0  0
   -0.4763   -0.9320    0.3572 C   0  0  1  0  0  0  0  0  0  0  0  0
   -0.5686   -2.0218   -0.7127 C   0  0  0  0  0  0  0  0  0  0  0  0
    0.6692   -3.1969   -0.2280 S   0  0  0  0  0  6  0  0  0  0  0  0
    0.0361   -4.2018    0.6015 O   0  0  0  0  0  0  0  0  0  0  0  0
    1.4579   -3.5432   -1.3906 O   0  0  0  0  0  0  0  0  0  0  0  0
    1.6092   -2.1147    0.8266 C   0  0  0  0  0  0  0  0  0  0  0  0
    1.0309   -0.7001    0.6314 C   0  0  1  0  0  0  0  0  0  0  0  0
    3.8690    0.0992    0.7927 C   0  0  0  0  0  0  0  0  0  0  0  0
    7.5512   -0.0292    3.1461 H   0  0  0  0  0  0  0  0  0  0  0  0
    7.6154    1.0946    1.7828 H   0  0  0  0  0  0  0  0  0  0  0  0
    7.7228   -0.6893    1.5157 H   0  0  0  0  0  0  0  0  0  0  0  0
    7.0323    0.4371   -0.4421 H   0  0  0  0  0  0  0  0  0  0  0  0
    5.7639    0.6586   -2.5265 H   0  0  0  0  0  0  0  0  0  0  0  0
    3.3210    0.5091   -2.5381 H   0  0  0  0  0  0  0  0  0  0  0  0
   -0.8866    0.4996   -2.0480 H   0  0  0  0  0  0  0  0  0  0  0  0
   -0.9154    2.0314   -1.1549 H   0  0  0  0  0  0  0  0  0  0  0  0
   -2.9607   -0.4357    0.7923 H   0  0  0  0  0  0  0  0  0  0  0  0
   -2.8680   -0.3725   -0.9615 H   0  0  0  0  0  0  0  0  0  0  0  0
   -3.1092    2.0747    0.8984 H   0  0  0  0  0  0  0  0  0  0  0  0
   -3.1137    2.1469   -0.8537 H   0  0  0  0  0  0  0  0  0  0  0  0
   -5.0602    1.4455   -2.1733 H   0  0  0  0  0  0  0  0  0  0  0  0
   -7.5073    1.0358   -2.1808 H   0  0  0  0  0  0  0  0  0  0  0  0
   -7.4908    0.6463    2.0840 H   0  0  0  0  0  0  0  0  0  0  0  0
   -5.0422    1.0539    2.1320 H   0  0  0  0  0  0  0  0  0  0  0  0
   -0.9015   -1.3338    1.2890 H   0  0  0  0  0  0  0  0  0  0  0  0
   -0.3063   -1.6698   -1.7139 H   0  0  0  0  0  0  0  0  0  0  0  0
   -1.5450   -2.5110   -0.7381 H   0  0  0  0  0  0  0  0  0  0  0  0
    1.4371   -2.4482    1.8552 H   0  0  0  0  0  0  0  0  0  0  0  0
    2.6645   -2.2397    0.5836 H   0  0  0  0  0  0  0  0  0  0  0  0
    1.1297   -0.1251    1.5618 H   0  0  0  0  0  0  0  0  0  0  0  0
    3.3751   -0.0191    1.7525 H   0  0  0  0  0  0  0  0  0  0  0  0
  1  2  1  0
  2  3  1  0
  3  4  2  0
  4  5  1  0
  5  6  2  0
  6  7  1  0
  7  8  1  0
  8  9  1  0
  9 10  2  0
  9 11  1  0
 11 12  1  0
 12 13  1  0
 13 14  1  0
 14 15  1  0
 15 16  2  0
 16 17  1  0
 17 18  2  0
 18 19  1  0
 18 20  1  0
 20 21  2  0
 12 22  1  0
 22 23  1  0
 23 24  1  0
 24 25  2  0
 24 26  2  0
 24 27  1  0
 27 28  1  0
  7 29  2  0
 29  3  1  0
 28  8  1  0
 21 15  1  0
 28 22  1  0
  1 30  1  0
  1 31  1  0
  1 32  1  0
  4 33  1  0
  5 34  1  0
  6 35  1  0
 11 36  1  0
 11 37  1  0
 13 38  1  0
 13 39  1  0
 14 40  1  0
 14 41  1  0
 16 42  1  0
 17 43  1  0
 20 44  1  0
 21 45  1  0
 22 46  1  1
 23 47  1  0
 23 48  1  0
 27 49  1  0
 27 50  1  0
 28 51  1  1
 29 52  1  0
M  END
$$$$
