
     RDKit          3D

 55 58  0  0  0  0  0  0  0  0999 V2000
   -3.4738   -2.7398    0.0579 C   0  0  0  0  0  0  0  0  0  0  0  0
   -2.1946   -2.8695   -0.7033 C   0  0  0  0  0  0  0  0  0  0  0  0
   -2.0137   -3.7791   -1.7972 C   0  0  0  0  0  0  0  0  0  0  0  0
   -0.7502   -3.7200   -2.3362 C   0  0  0  0  0  0  0  0  0  0  0  0
    0.2299   -2.5816   -1.5341 S   0  0  0  0  0  0  0  0  0  0  0  0
   -1.0376   -2.1360   -0.4665 C   0  0  0  0  0  0  0  0  0  0  0  0
   -0.7830   -1.0862    0.5817 C   0  0  0  0  0  0  0  0  0  0  0  0
   -0.6124    0.2460   -0.0098 N   0  0  0  0  0  0  0  0  0  0  0  0
   -1.7324    0.8167   -0.7696 C   0  0  0  0  0  0  0  0  0  0  0  0
   -2.5312    1.8915   -0.0188 C   0  0  0  0  0  0  0  0  0  0  0  0
   -3.1290    1.4343    1.3019 C   0  0  0  0  0  0  0  0  0  0  0  0
   -4.2530    2.4241    1.4797 C   0  0  0  0  0  0  0  0  0  0  0  0
   -4.7619    2.5826    0.0626 C   0  0  0  0  0  0  0  0  0  0  0  0
   -3.6601    2.3105   -0.8158 O   0  0  0  0  0  0  0  0  0  0  0  0
    0.4906    1.0659    0.1919 C   0  0  0  0  0  0  0  0  0  0  0  0
    0.5737    2.2057   -0.2639 O   0  0  0  0  0  0  0  0  0  0  0  0
    1.5814    0.5692    1.0899 C   0  0  0  0  0  0  0  0  0  0  0  0
    2.7941    0.3495    0.5498 C   0  0  0  0  0  0  0  0  0  0  0  0
    3.2154    0.4439   -0.8521 C   0  0  0  0  0  0  0  0  0  0  0  0
    3.3604    1.6918   -1.4730 C   0  0  0  0  0  0  0  0  0  0  0  0
    3.7478    1.7784   -2.8121 C   0  0  0  0  0  0  0  0  0  0  0  0
    3.9960    0.6193   -3.5439 C   0  0  0  0  0  0  0  0  0  0  0  0
    3.8575   -0.6272   -2.9383 C   0  0  0  0  0  0  0  0  0  0  0  0
    3.4690   -0.7153   -1.5997 C   0  0  0  0  0  0  0  0  0  0  0  0
    4.1210   -0.1032    1.5520 S   0  0  0  0  0  6  0  0  0  0  0  0
    4.2733   -1.5485    1.5247 O   0  0  0  0  0  0  0  0  0  0  0  0
    5.2667    0.7570    1.3172 O   0  0  0  0  0  0  0  0  0  0  0  0
    3.5255    0.3060    3.1637 C   0  0  0  0  0  0  0  0  0  0  0  0
    2.1329   -0.2483    3.2766 C   0  0  0  0  0  0  0  0  0  0  0  0
    1.2292    0.4502    2.4222 O   0  0  0  0  0  0  0  0  0  0  0  0
   -3.9294   -1.7619   -0.1258 H   0  0  0  0  0  0  0  0  0  0  0  0
   -4.1932   -3.5090   -0.2410 H   0  0  0  0  0  0  0  0  0  0  0  0
   -3.2965   -2.8477    1.1326 H   0  0  0  0  0  0  0  0  0  0  0  0
   -2.7796   -4.4482   -2.1717 H   0  0  0  0  0  0  0  0  0  0  0  0
   -0.3553   -4.2946   -3.1626 H   0  0  0  0  0  0  0  0  0  0  0  0
    0.0904   -1.3917    1.1626 H   0  0  0  0  0  0  0  0  0  0  0  0
   -1.6166   -1.0267    1.2882 H   0  0  0  0  0  0  0  0  0  0  0  0
   -2.4065    0.0257   -1.1120 H   0  0  0  0  0  0  0  0  0  0  0  0
   -1.3276    1.2639   -1.6870 H   0  0  0  0  0  0  0  0  0  0  0  0
   -1.9124    2.7816    0.1465 H   0  0  0  0  0  0  0  0  0  0  0  0
   -3.5466    0.4247    1.2153 H   0  0  0  0  0  0  0  0  0  0  0  0
   -2.4098    1.4456    2.1253 H   0  0  0  0  0  0  0  0  0  0  0  0
   -3.8552    3.3788    1.8435 H   0  0  0  0  0  0  0  0  0  0  0  0
   -5.0274    2.0914    2.1759 H   0  0  0  0  0  0  0  0  0  0  0  0
   -5.5493    1.8551   -0.1593 H   0  0  0  0  0  0  0  0  0  0  0  0
   -5.1499    3.5861   -0.1325 H   0  0  0  0  0  0  0  0  0  0  0  0
    3.1656    2.6114   -0.9235 H   0  0  0  0  0  0  0  0  0  0  0  0
    3.8515    2.7527   -3.2826 H   0  0  0  0  0  0  0  0  0  0  0  0
    4.2970    0.6882   -4.5859 H   0  0  0  0  0  0  0  0  0  0  0  0
    4.0520   -1.5329   -3.5070 H   0  0  0  0  0  0  0  0  0  0  0  0
    3.3728   -1.7015   -1.1487 H   0  0  0  0  0  0  0  0  0  0  0  0
    3.5421    1.3960    3.2607 H   0  0  0  0  0  0  0  0  0  0  0  0
    4.2043   -0.1392    3.8961 H   0  0  0  0  0  0  0  0  0  0  0  0
    1.7681   -0.1143    4.3004 H   0  0  0  0  0  0  0  0  0  0  0  0
    2.0800   -1.3212    3.0552 H   0  0  0  0  0  0  0  0  0  0  0  0
  1  2  1  0
  2  3  1  0
  3  4  2  0
  4  5  1  0
  5  6  1  0
  6  7  1  0
  7  8  1  0
  8  9  1  0
  9 10  1  0
 10 11  1  0
 11 12  1  0
 12 13  1  0
 13 14  1  0
  8 15  1  0
 15 16  2  0
 15 17  1  0
 17 18  2  0
 18 19  1  0
 19 20  2  0
 20 21  1  0
 21 22  2  0
 22 23  1  0
 23 24  2  0
 18 25  1  0
 25 26  2  0
 25 27  2  0
 25 28  1  0
 28 29  1  0
 29 30  1  0
  6  2  2  0
 14 10  1  0
 30 17  1  0
 24 19  1  0
  1 31  1  0
  1 32  1  0
  1 33  1  0
  3 34  1  0
  4 35  1  0
  7 36  1  0
  7 37  1  0
  9 38  1  0
  9 39  1  0
 10 40  1  0
 11 41  1  0
 11 42  1  0
 12 43  1  0
 12 44  1  0
 13 45  1  0
 13 46  1  0
 20 47  1  0
 21 48  1  0
 22 49  1  0
 23 50  1  0
 24 51  1  0
 28 52  1  0
 28 53  1  0
 29 54  1  0
 29 55  1  0
M  END
$$$$
