
     RDKit          3D

 46 49  0  0  0  0  0  0  0  0999 V2000
   -2.4959    0.9690   -1.6971 O   0  0  0  0  0  0  0  0  0  0  0  0
   -2.1094    0.0444   -0.9866 C   0  0  0  0  0  0  0  0  0  0  0  0
   -0.7993   -0.5286   -1.3452 C   0  0  0  0  0  0  0  0  0  0  0  0
    0.3136    0.3212   -1.3816 C   0  0  0  0  0  0  0  0  0  0  0  0
    1.5590   -0.2026   -1.7420 C   0  0  0  0  0  0  0  0  0  0  0  0
    2.9759    0.8770   -1.7958 S   0  0  0  0  0  6  0  0  0  0  0  0
    2.5500    2.0705   -2.4959 O   0  0  0  0  0  0  0  0  0  0  0  0
    4.0949    0.0885   -2.2633 O   0  0  0  0  0  0  0  0  0  0  0  0
    3.2676    1.3147   -0.0880 C   0  0  0  0  0  0  0  0  0  0  0  0
    3.6907    0.1335    0.7913 C   0  0  0  0  0  0  0  0  0  0  0  0
    5.1779   -0.1161    0.5641 C   0  0  0  0  0  0  0  0  0  0  0  0
    5.8864    1.4978    0.3038 S   0  0  0  0  0  6  0  0  0  0  0  0
    6.4291    1.9545    1.5670 O   0  0  0  0  0  0  0  0  0  0  0  0
    6.6665    1.4920   -0.9121 O   0  0  0  0  0  0  0  0  0  0  0  0
    4.3602    2.3740    0.0206 C   0  0  0  0  0  0  0  0  0  0  0  0
    1.6931   -1.5490   -2.1008 C   0  0  0  0  0  0  0  0  0  0  0  0
    0.5701   -2.3791   -2.0900 C   0  0  0  0  0  0  0  0  0  0  0  0
   -0.6712   -1.8647   -1.7198 C   0  0  0  0  0  0  0  0  0  0  0  0
   -1.7347   -2.6793   -1.7420 F   0  0  0  0  0  0  0  0  0  0  0  0
   -2.7447   -0.4381    0.1459 N   0  0  0  0  0  0  0  0  0  0  0  0
   -2.2385   -1.4584    1.0848 C   0  0  0  0  0  0  0  0  0  0  0  0
   -3.1773   -1.4816    2.2973 C   0  0  0  0  0  0  0  0  0  0  0  0
   -4.3000   -0.6131    1.8342 C   0  0  0  0  0  0  0  0  0  0  0  0
   -5.4896   -0.3533    2.4990 C   0  0  0  0  0  0  0  0  0  0  0  0
   -6.3966    0.5300    1.9125 C   0  0  0  0  0  0  0  0  0  0  0  0
   -6.1015    1.1404    0.6851 C   0  0  0  0  0  0  0  0  0  0  0  0
   -4.8966    0.8743    0.0267 C   0  0  0  0  0  0  0  0  0  0  0  0
   -4.0036   -0.0077    0.6116 C   0  0  0  0  0  0  0  0  0  0  0  0
    0.1899    1.3795   -1.1569 H   0  0  0  0  0  0  0  0  0  0  0  0
    2.3214    1.7392    0.2666 H   0  0  0  0  0  0  0  0  0  0  0  0
    3.1085   -0.7741    0.6096 H   0  0  0  0  0  0  0  0  0  0  0  0
    3.5382    0.4101    1.8425 H   0  0  0  0  0  0  0  0  0  0  0  0
    5.6499   -0.5835    1.4317 H   0  0  0  0  0  0  0  0  0  0  0  0
    5.3676   -0.7295   -0.3183 H   0  0  0  0  0  0  0  0  0  0  0  0
    4.1894    3.0031    0.9003 H   0  0  0  0  0  0  0  0  0  0  0  0
    4.4678    3.0092   -0.8613 H   0  0  0  0  0  0  0  0  0  0  0  0
    2.6542   -1.9544   -2.4142 H   0  0  0  0  0  0  0  0  0  0  0  0
    0.6503   -3.4214   -2.3879 H   0  0  0  0  0  0  0  0  0  0  0  0
   -2.2507   -2.4307    0.5815 H   0  0  0  0  0  0  0  0  0  0  0  0
   -1.2062   -1.2303    1.3710 H   0  0  0  0  0  0  0  0  0  0  0  0
   -3.5070   -2.4986    2.5287 H   0  0  0  0  0  0  0  0  0  0  0  0
   -2.6916   -1.0422    3.1746 H   0  0  0  0  0  0  0  0  0  0  0  0
   -5.7133   -0.8183    3.4537 H   0  0  0  0  0  0  0  0  0  0  0  0
   -7.3379    0.7509    2.4102 H   0  0  0  0  0  0  0  0  0  0  0  0
   -6.8160    1.8278    0.2381 H   0  0  0  0  0  0  0  0  0  0  0  0
   -4.6905    1.3530   -0.9244 H   0  0  0  0  0  0  0  0  0  0  0  0
  1  2  2  0
  2  3  1  0
  3  4  2  0
  4  5  1  0
  5  6  1  0
  6  7  2  0
  6  8  2  0
  6  9  1  0
  9 10  1  0
 10 11  1  0
 11 12  1  0
 12 13  2  0
 12 14  2  0
 12 15  1  0
  5 16  2  0
 16 17  1  0
 17 18  2  0
 18 19  1  0
  2 20  1  0
 20 21  1  0
 21 22  1  0
 22 23  1  0
 23 24  2  0
 24 25  1  0
 25 26  2  0
 26 27  1  0
 27 28  2  0
 18  3  1  0
 28 20  1  0
 15  9  1  0
 28 23  1  0
  4 29  1  0
  9 30  1  0
 10 31  1  0
 10 32  1  0
 11 33  1  0
 11 34  1  0
 15 35  1  0
 15 36  1  0
 16 37  1  0
 17 38  1  0
 21 39  1  0
 21 40  1  0
 22 41  1  0
 22 42  1  0
 24 43  1  0
 25 44  1  0
 26 45  1  0
 27 46  1  0
M  END
$$$$
