
     RDKit          3D

 44 46  0  0  0  0  0  0  0  0999 V2000
    0.6438    2.1868    1.5728 C   0  0  0  0  0  0  0  0  0  0  0  0
   -0.1731    0.9937    1.2119 C   0  0  0  0  0  0  0  0  0  0  0  0
   -1.5591    0.8760    1.2904 C   0  0  0  0  0  0  0  0  0  0  0  0
   -2.5851    1.8720    1.7149 C   0  0  0  0  0  0  0  0  0  0  0  0
   -1.8911   -0.3998    0.8709 N   0  0  0  0  0  0  0  0  0  0  0  0
   -3.2303   -0.9809    0.8209 C   0  0  0  0  0  0  0  0  0  0  0  0
   -4.0054   -0.5385   -0.3950 C   0  0  0  0  0  0  0  0  0  0  0  0
   -3.5626   -0.8465   -1.6861 C   0  0  0  0  0  0  0  0  0  0  0  0
   -4.3190   -0.4278   -2.7694 C   0  0  0  0  0  0  0  0  0  0  0  0
   -5.4751    0.2597   -2.6574 N   0  0  0  0  0  0  0  0  0  0  0  0
   -5.8927    0.5400   -1.4057 C   0  0  0  0  0  0  0  0  0  0  0  0
   -5.2061    0.1661   -0.2602 C   0  0  0  0  0  0  0  0  0  0  0  0
   -0.7528   -1.0948    0.5409 C   0  0  0  0  0  0  0  0  0  0  0  0
   -0.7255   -2.3692    0.1133 N   0  0  0  0  0  0  0  0  0  0  0  0
    0.5249   -2.7825   -0.1302 C   0  0  0  0  0  0  0  0  0  0  0  0
    1.6653   -2.0823   -0.0164 N   0  0  0  0  0  0  0  0  0  0  0  0
    1.6082   -0.7926    0.3979 C   0  0  0  0  0  0  0  0  0  0  0  0
    2.7862   -0.0432    0.5050 N   0  0  0  0  0  0  0  0  0  0  0  0
    3.9187   -0.5461   -0.2673 C   0  0  0  0  0  0  0  0  0  0  0  0
    5.1349    0.3431   -0.0022 C   0  0  0  0  0  0  0  0  0  0  0  0
    6.3762   -0.1693   -0.7169 C   0  0  0  0  0  0  0  0  0  0  0  0
    6.1876   -0.0988   -2.1228 O   0  0  0  0  0  0  0  0  0  0  0  0
    0.3384   -0.2568    0.7165 C   0  0  0  0  0  0  0  0  0  0  0  0
    1.0379    2.6622    0.6689 H   0  0  0  0  0  0  0  0  0  0  0  0
    0.0652    2.9354    2.1199 H   0  0  0  0  0  0  0  0  0  0  0  0
    1.4836    1.8994    2.2134 H   0  0  0  0  0  0  0  0  0  0  0  0
   -3.1706    2.2067    0.8533 H   0  0  0  0  0  0  0  0  0  0  0  0
   -2.1301    2.7575    2.1664 H   0  0  0  0  0  0  0  0  0  0  0  0
   -3.2641    1.4463    2.4598 H   0  0  0  0  0  0  0  0  0  0  0  0
   -3.1487   -2.0736    0.8316 H   0  0  0  0  0  0  0  0  0  0  0  0
   -3.7399   -0.7008    1.7495 H   0  0  0  0  0  0  0  0  0  0  0  0
   -2.6441   -1.4018   -1.8523 H   0  0  0  0  0  0  0  0  0  0  0  0
   -4.0042   -0.6437   -3.7864 H   0  0  0  0  0  0  0  0  0  0  0  0
   -6.8267    1.0911   -1.3434 H   0  0  0  0  0  0  0  0  0  0  0  0
   -5.6067    0.4256    0.7141 H   0  0  0  0  0  0  0  0  0  0  0  0
    0.6321   -3.8094   -0.4653 H   0  0  0  0  0  0  0  0  0  0  0  0
    2.5913    0.9380    0.3449 H   0  0  0  0  0  0  0  0  0  0  0  0
    3.6752   -0.5439   -1.3366 H   0  0  0  0  0  0  0  0  0  0  0  0
    4.1621   -1.5730    0.0325 H   0  0  0  0  0  0  0  0  0  0  0  0
    5.3318    0.3902    1.0757 H   0  0  0  0  0  0  0  0  0  0  0  0
    4.9120    1.3637   -0.3378 H   0  0  0  0  0  0  0  0  0  0  0  0
    7.2403    0.4497   -0.4556 H   0  0  0  0  0  0  0  0  0  0  0  0
    6.5916   -1.2064   -0.4401 H   0  0  0  0  0  0  0  0  0  0  0  0
    7.0061   -0.4217   -2.5383 H   0  0  0  0  0  0  0  0  0  0  0  0
  1  2  1  0
  2  3  2  0
  3  4  1  0
  3  5  1  0
  5  6  1  0
  6  7  1  0
  7  8  2  0
  8  9  1  0
  9 10  2  0
 10 11  1  0
 11 12  2  0
  5 13  1  0
 13 14  2  0
 14 15  1  0
 15 16  2  0
 16 17  1  0
 17 18  1  0
 18 19  1  0
 19 20  1  0
 20 21  1  0
 21 22  1  0
 17 23  2  0
 23  2  1  0
 12  7  1  0
 23 13  1  0
  1 24  1  0
  1 25  1  0
  1 26  1  0
  4 27  1  0
  4 28  1  0
  4 29  1  0
  6 30  1  0
  6 31  1  0
  8 32  1  0
  9 33  1  0
 11 34  1  0
 12 35  1  0
 15 36  1  0
 18 37  1  0
 19 38  1  0
 19 39  1  0
 20 40  1  0
 20 41  1  0
 21 42  1  0
 21 43  1  0
 22 44  1  0
M  END
$$$$
