
     RDKit          3D

 44 46  0  0  0  0  0  0  0  0999 V2000
   -1.1611   -1.2366   -3.4948 C   0  0  0  0  0  0  0  0  0  0  0  0
   -1.9993   -0.1885   -2.8091 C   0  0  0  0  0  0  0  0  0  0  0  0
   -3.0366    0.2371   -3.3178 O   0  0  0  0  0  0  0  0  0  0  0  0
   -1.5090    0.2633   -1.5984 N   0  0  0  0  0  0  0  0  0  0  0  0
   -0.2923   -0.1218   -1.0937 N   0  0  0  0  0  0  0  0  0  0  0  0
   -0.0598    0.6425   -0.0672 C   0  0  0  0  0  0  0  0  0  0  0  0
    1.1544    0.5145    0.7714 C   0  0  0  0  0  0  0  0  0  0  0  0
    1.4438    1.4354    1.7833 C   0  0  0  0  0  0  0  0  0  0  0  0
    2.5983    1.2821    2.5531 C   0  0  0  0  0  0  0  0  0  0  0  0
    3.4658    0.2159    2.3121 C   0  0  0  0  0  0  0  0  0  0  0  0
    3.1859   -0.6985    1.2984 C   0  0  0  0  0  0  0  0  0  0  0  0
    4.0579   -1.7900    1.0255 N   0  0  0  0  0  0  0  0  0  0  0  0
    5.6464   -1.4988    0.5454 S   0  0  0  0  0  6  0  0  0  0  0  0
    5.4244   -0.6134   -0.9857 C   0  0  0  0  0  0  0  0  0  0  0  0
    6.2961   -0.6233    1.4950 O   0  0  0  0  0  0  0  0  0  0  0  0
    6.1992   -2.7962    0.2190 O   0  0  0  0  0  0  0  0  0  0  0  0
    2.0288   -0.5549    0.5322 C   0  0  0  0  0  0  0  0  0  0  0  0
   -1.0980    1.7060    0.1917 C   0  0  0  0  0  0  0  0  0  0  0  0
   -2.1857    1.2646   -0.7813 C   0  0  0  0  0  0  0  0  0  0  0  0
   -3.4063    0.7095   -0.0618 C   0  0  0  0  0  0  0  0  0  0  0  0
   -4.6245    1.4087   -0.1220 C   0  0  0  0  0  0  0  0  0  0  0  0
   -5.7534    0.9281    0.5443 C   0  0  0  0  0  0  0  0  0  0  0  0
   -5.6703   -0.2515    1.2725 C   0  0  0  0  0  0  0  0  0  0  0  0
   -6.7537   -0.7102    1.9127 F   0  0  0  0  0  0  0  0  0  0  0  0
   -4.4798   -0.9628    1.3456 C   0  0  0  0  0  0  0  0  0  0  0  0
   -3.3496   -0.4851    0.6801 C   0  0  0  0  0  0  0  0  0  0  0  0
   -1.6803   -1.5873   -4.3916 H   0  0  0  0  0  0  0  0  0  0  0  0
   -0.1991   -0.8103   -3.7915 H   0  0  0  0  0  0  0  0  0  0  0  0
   -1.0073   -2.0922   -2.8315 H   0  0  0  0  0  0  0  0  0  0  0  0
    0.7918    2.2785    1.9932 H   0  0  0  0  0  0  0  0  0  0  0  0
    2.8254    1.9916    3.3462 H   0  0  0  0  0  0  0  0  0  0  0  0
    4.3522    0.1022    2.9330 H   0  0  0  0  0  0  0  0  0  0  0  0
    3.6604   -2.6093    0.5655 H   0  0  0  0  0  0  0  0  0  0  0  0
    4.8075   -1.2141   -1.6567 H   0  0  0  0  0  0  0  0  0  0  0  0
    6.4113   -0.4620   -1.4289 H   0  0  0  0  0  0  0  0  0  0  0  0
    4.9624    0.3538   -0.7820 H   0  0  0  0  0  0  0  0  0  0  0  0
    1.8038   -1.2712   -0.2542 H   0  0  0  0  0  0  0  0  0  0  0  0
   -1.4125    1.7354    1.2382 H   0  0  0  0  0  0  0  0  0  0  0  0
   -0.6816    2.6761   -0.1004 H   0  0  0  0  0  0  0  0  0  0  0  0
   -2.4843    2.0956   -1.4320 H   0  0  0  0  0  0  0  0  0  0  0  0
   -4.7072    2.3270   -0.7004 H   0  0  0  0  0  0  0  0  0  0  0  0
   -6.6969    1.4622    0.4934 H   0  0  0  0  0  0  0  0  0  0  0  0
   -4.4406   -1.8865    1.9140 H   0  0  0  0  0  0  0  0  0  0  0  0
   -2.4269   -1.0594    0.7351 H   0  0  0  0  0  0  0  0  0  0  0  0
  1  2  1  0
  2  3  2  0
  2  4  1  0
  4  5  1  0
  5  6  2  0
  6  7  1  0
  7  8  2  0
  8  9  1  0
  9 10  2  0
 10 11  1  0
 11 12  1  0
 12 13  1  0
 13 14  1  0
 13 15  2  0
 13 16  2  0
 11 17  2  0
  6 18  1  0
 18 19  1  0
 19 20  1  0
 20 21  2  0
 21 22  1  0
 22 23  2  0
 23 24  1  0
 23 25  1  0
 25 26  2  0
 19  4  1  0
 26 20  1  0
 17  7  1  0
  1 27  1  0
  1 28  1  0
  1 29  1  0
  8 30  1  0
  9 31  1  0
 10 32  1  0
 12 33  1  0
 14 34  1  0
 14 35  1  0
 14 36  1  0
 17 37  1  0
 18 38  1  0
 18 39  1  0
 19 40  1  0
 21 41  1  0
 22 42  1  0
 25 43  1  0
 26 44  1  0
M  END
$$$$
