
     RDKit          3D

 38 40  0  0  0  0  0  0  0  0999 V2000
   -1.0773   -2.4372    2.0713 O   0  0  0  0  0  0  0  0  0  0  0  0
   -1.2216   -2.1425    0.6668 S   0  0  0  0  0  6  0  0  0  0  0  0
   -1.6321   -3.1353   -0.2950 O   0  0  0  0  0  0  0  0  0  0  0  0
    0.2036   -1.4786    0.1285 N   0  0  0  0  0  0  0  0  0  0  0  0
    0.7809   -0.4054    0.9345 C   0  0  0  0  0  0  0  0  0  0  0  0
    2.0400    0.1254    0.2884 C   0  0  0  0  0  0  0  0  0  0  0  0
    2.0360    1.3765   -0.3715 C   0  0  0  0  0  0  0  0  0  0  0  0
    3.1911    1.8663   -0.9899 C   0  0  0  0  0  0  0  0  0  0  0  0
    4.3259    1.0867   -0.9386 C   0  0  0  0  0  0  0  0  0  0  0  0
    4.3382   -0.1339   -0.3068 C   0  0  0  0  0  0  0  0  0  0  0  0
    3.2163   -0.6434    0.3115 C   0  0  0  0  0  0  0  0  0  0  0  0
    5.5525   -0.7417   -0.3760 O   0  0  0  0  0  0  0  0  0  0  0  0
    6.3043    0.2382   -1.1211 C   0  0  0  0  0  0  0  0  0  0  0  0
    5.5311    1.4014   -1.4841 O   0  0  0  0  0  0  0  0  0  0  0  0
   -2.2451   -0.8074    0.5009 N   0  0  0  0  0  0  0  0  0  0  0  0
   -2.5917   -0.4155   -0.8827 C   0  0  0  0  0  0  0  0  0  0  0  0
   -3.0757    1.0344   -0.8754 C   0  0  0  0  0  0  0  0  0  0  0  0
   -3.9873    1.3552    0.3114 C   0  0  0  0  0  0  0  0  0  0  0  0
   -4.5471    0.0891    0.9451 C   0  0  0  0  0  0  0  0  0  0  0  0
   -3.4325   -0.8536    1.4050 C   0  0  0  0  0  0  0  0  0  0  0  0
    0.2270   -1.3450   -0.8773 H   0  0  0  0  0  0  0  0  0  0  0  0
    1.0256   -0.7682    1.9391 H   0  0  0  0  0  0  0  0  0  0  0  0
    0.0648    0.4163    1.0458 H   0  0  0  0  0  0  0  0  0  0  0  0
    1.1279    1.9756   -0.4031 H   0  0  0  0  0  0  0  0  0  0  0  0
    3.1969    2.8260   -1.4941 H   0  0  0  0  0  0  0  0  0  0  0  0
    3.2458   -1.6146    0.7959 H   0  0  0  0  0  0  0  0  0  0  0  0
    7.1584    0.5607   -0.5143 H   0  0  0  0  0  0  0  0  0  0  0  0
    6.6814   -0.2314   -2.0370 H   0  0  0  0  0  0  0  0  0  0  0  0
   -1.7263   -0.4880   -1.5485 H   0  0  0  0  0  0  0  0  0  0  0  0
   -3.3687   -1.0806   -1.2781 H   0  0  0  0  0  0  0  0  0  0  0  0
   -2.2149    1.7143   -0.8499 H   0  0  0  0  0  0  0  0  0  0  0  0
   -3.6002    1.2375   -1.8165 H   0  0  0  0  0  0  0  0  0  0  0  0
   -3.4164    1.9116    1.0655 H   0  0  0  0  0  0  0  0  0  0  0  0
   -4.8016    2.0137   -0.0111 H   0  0  0  0  0  0  0  0  0  0  0  0
   -5.1844   -0.4262    0.2152 H   0  0  0  0  0  0  0  0  0  0  0  0
   -5.1921    0.3394    1.7950 H   0  0  0  0  0  0  0  0  0  0  0  0
   -3.8332   -1.8713    1.4739 H   0  0  0  0  0  0  0  0  0  0  0  0
   -3.0992   -0.5483    2.4039 H   0  0  0  0  0  0  0  0  0  0  0  0
  1  2  2  0
  2  3  2  0
  2  4  1  0
  4  5  1  0
  5  6  1  0
  6  7  2  0
  7  8  1  0
  8  9  2  0
  9 10  1  0
 10 11  2  0
 10 12  1  0
 12 13  1  0
 13 14  1  0
  2 15  1  0
 15 16  1  0
 16 17  1  0
 17 18  1  0
 18 19  1  0
 19 20  1  0
 11  6  1  0
 20 15  1  0
 14  9  1  0
  4 21  1  0
  5 22  1  0
  5 23  1  0
  7 24  1  0
  8 25  1  0
 11 26  1  0
 13 27  1  0
 13 28  1  0
 16 29  1  0
 16 30  1  0
 17 31  1  0
 17 32  1  0
 18 33  1  0
 18 34  1  0
 19 35  1  0
 19 36  1  0
 20 37  1  0
 20 38  1  0
M  END
$$$$
