
     RDKit          3D

 49 48  0  0  0  0  0  0  0  0999 V2000
    7.6630   -0.7475   -0.3969 C   0  0  0  0  0  0  0  0  0  0  0  0
    6.2736   -0.2557   -0.7018 C   0  0  0  0  0  0  0  0  0  0  0  0
    5.3410   -0.9907    0.0554 O   0  0  0  0  0  0  0  0  0  0  0  0
    4.0018   -0.7074   -0.0662 C   0  0  0  0  0  0  0  0  0  0  0  0
    3.5841    0.2782   -0.9165 C   0  0  0  0  0  0  0  0  0  0  0  0
    2.2175    0.5492   -1.0237 C   0  0  0  0  0  0  0  0  0  0  0  0
    1.2925   -0.1506   -0.2964 C   0  0  0  0  0  0  0  0  0  0  0  0
   -0.1344    0.1601   -0.4325 C   0  0  0  0  0  0  0  0  0  0  0  0
   -0.4198    1.2935    0.3620 N   0  0  0  0  0  0  0  0  0  0  0  0
   -1.7432    1.7884    0.4038 C   0  0  0  0  0  0  0  0  0  0  0  0
   -2.7023    0.8942    1.0883 C   0  0  0  0  0  0  0  0  0  0  0  0
   -4.0793    1.5409    1.0962 C   0  0  0  0  0  0  0  0  0  0  0  0
   -4.9717    0.3586    1.3451 C   0  0  0  0  0  0  0  0  0  0  0  0
   -4.0596   -0.8510    1.3271 C   0  0  0  0  0  0  0  0  0  0  0  0
   -2.9786   -0.3625    0.4381 N   0  0  0  0  0  0  0  0  0  0  0  0
   -3.4871   -0.1858   -0.8939 C   0  0  0  0  0  0  0  0  0  0  0  0
   -3.8275   -1.4997   -1.5588 C   0  0  0  0  0  0  0  0  0  0  0  0
    1.7271   -1.1364    0.5522 C   0  0  0  0  0  0  0  0  0  0  0  0
    3.0925   -1.4237    0.6743 C   0  0  0  0  0  0  0  0  0  0  0  0
    0.6899    0.0000    0.0000 Cl  0  0  0  0  0  0  0  0  0  0  0  0
    0.6921    0.0000    0.0000 Cl  0  0  0  0  0  0  0  0  0  0  0  0
    8.3605    0.1072   -0.4175 H   0  0  0  0  0  0  0  0  0  0  0  0
    7.9171   -1.5248   -1.1280 H   0  0  0  0  0  0  0  0  0  0  0  0
    7.6293   -1.1542    0.6489 H   0  0  0  0  0  0  0  0  0  0  0  0
    5.9991   -0.3192   -1.7628 H   0  0  0  0  0  0  0  0  0  0  0  0
    6.1901    0.8114   -0.3835 H   0  0  0  0  0  0  0  0  0  0  0  0
    4.3073    0.8263   -1.4857 H   0  0  0  0  0  0  0  0  0  0  0  0
    1.9443    1.3326   -1.7052 H   0  0  0  0  0  0  0  0  0  0  0  0
   -0.7184   -0.7492   -0.1650 H   0  0  0  0  0  0  0  0  0  0  0  0
   -0.3507    0.4092   -1.5032 H   0  0  0  0  0  0  0  0  0  0  0  0
    0.1140    1.3888    1.2307 H   0  0  0  0  0  0  0  0  0  0  0  0
   -2.0759    2.1076   -0.6059 H   0  0  0  0  0  0  0  0  0  0  0  0
   -1.7074    2.7496    0.9985 H   0  0  0  0  0  0  0  0  0  0  0  0
   -2.3567    0.7102    2.1265 H   0  0  0  0  0  0  0  0  0  0  0  0
   -4.0820    2.2636    1.9384 H   0  0  0  0  0  0  0  0  0  0  0  0
   -4.3058    2.0934    0.1879 H   0  0  0  0  0  0  0  0  0  0  0  0
   -5.7638    0.3323    0.5844 H   0  0  0  0  0  0  0  0  0  0  0  0
   -5.4167    0.4074    2.3654 H   0  0  0  0  0  0  0  0  0  0  0  0
   -3.5990   -0.9299    2.3257 H   0  0  0  0  0  0  0  0  0  0  0  0
   -4.5260   -1.7582    0.9502 H   0  0  0  0  0  0  0  0  0  0  0  0
   -2.7471    0.3249   -1.5218 H   0  0  0  0  0  0  0  0  0  0  0  0
   -4.4231    0.4276   -0.9372 H   0  0  0  0  0  0  0  0  0  0  0  0
   -4.8625   -1.8346   -1.3466 H   0  0  0  0  0  0  0  0  0  0  0  0
   -3.7477   -1.3456   -2.6534 H   0  0  0  0  0  0  0  0  0  0  0  0
   -3.0816   -2.2790   -1.2820 H   0  0  0  0  0  0  0  0  0  0  0  0
    1.0587   -1.7267    1.1549 H   0  0  0  0  0  0  0  0  0  0  0  0
    3.4544   -2.1888    1.3305 H   0  0  0  0  0  0  0  0  0  0  0  0
   -0.6899    0.0000    0.0000 H   0  0  0  0  0  0  0  0  0  0  0  0
   -0.6921    0.0000    0.0000 H   0  0  0  0  0  0  0  0  0  0  0  0
  1  2  1  0
  2  3  1  0
  3  4  1  0
  4  5  2  0
  5  6  1  0
  6  7  2  0
  7  8  1  0
  8  9  1  0
  9 10  1  0
 10 11  1  0
 11 12  1  0
 12 13  1  0
 13 14  1  0
 14 15  1  0
 15 16  1  0
 16 17  1  0
  7 18  1  0
 18 19  2  0
 19  4  1  0
 15 11  1  0
  1 22  1  0
  1 23  1  0
  1 24  1  0
  2 25  1  0
  2 26  1  0
  5 27  1  0
  6 28  1  0
  8 29  1  0
  8 30  1  0
  9 31  1  0
 10 32  1  0
 10 33  1  0
 11 34  1  0
 12 35  1  0
 12 36  1  0
 13 37  1  0
 13 38  1  0
 14 39  1  0
 14 40  1  0
 16 41  1  0
 16 42  1  0
 17 43  1  0
 17 44  1  0
 17 45  1  0
 18 46  1  0
 19 47  1  0
 20 48  1  0
 21 49  1  0
M  END
$$$$
