
     RDKit          3D

 52 54  0  0  0  0  0  0  0  0999 V2000
   -6.4064   -2.1181   -1.2861 C   0  0  0  0  0  0  0  0  0  0  0  0
   -6.0780   -0.8266   -0.6937 N   0  0  0  0  0  0  0  0  0  0  0  0
   -6.1641   -0.8783    0.7784 C   0  0  0  0  0  0  0  0  0  0  0  0
   -5.4129    0.2713    1.4689 C   0  0  0  0  0  0  0  0  0  0  0  0
   -3.9888    0.2652    1.1358 N   0  0  0  0  0  0  0  0  0  0  0  0
   -3.1031    0.9090    1.9895 C   0  0  0  0  0  0  0  0  0  0  0  0
   -3.4429    1.5232    2.9989 O   0  0  0  0  0  0  0  0  0  0  0  0
   -1.6616    0.8444    1.6754 C   0  0  0  0  0  0  0  0  0  0  0  0
   -0.9793   -0.3738    1.7482 C   0  0  0  0  0  0  0  0  0  0  0  0
    0.3804   -0.4241    1.4325 C   0  0  0  0  0  0  0  0  0  0  0  0
    1.0623    0.7405    1.0449 C   0  0  0  0  0  0  0  0  0  0  0  0
    2.5371    0.6982    0.7023 C   0  0  0  0  0  0  0  0  0  0  0  0
    2.8291    1.2434   -0.6436 N   0  0  0  0  0  0  0  0  0  0  0  0
    2.3518    0.3917   -1.7505 C   0  0  0  0  0  0  0  0  0  0  0  0
    4.3695    1.9424   -0.8519 S   0  0  0  0  0  6  0  0  0  0  0  0
    4.6471    2.7932    0.2858 O   0  0  0  0  0  0  0  0  0  0  0  0
    4.4468    2.4580   -2.2022 O   0  0  0  0  0  0  0  0  0  0  0  0
    5.4704    0.5440   -0.7504 C   0  0  0  0  0  0  0  0  0  0  0  0
    5.9599    0.1412    0.4977 C   0  0  0  0  0  0  0  0  0  0  0  0
    6.8390   -0.9380    0.5739 C   0  0  0  0  0  0  0  0  0  0  0  0
    7.2408   -1.5960   -0.5928 C   0  0  0  0  0  0  0  0  0  0  0  0
    6.7712   -1.1726   -1.8388 C   0  0  0  0  0  0  0  0  0  0  0  0
    5.8888   -0.0951   -1.9218 C   0  0  0  0  0  0  0  0  0  0  0  0
    0.3680    1.9618    1.0078 C   0  0  0  0  0  0  0  0  0  0  0  0
   -0.9901    2.0172    1.3256 C   0  0  0  0  0  0  0  0  0  0  0  0
   -3.6287   -0.3342   -0.1527 C   0  0  0  0  0  0  0  0  0  0  0  0
   -4.7852   -0.3040   -1.1714 C   0  0  0  0  0  0  0  0  0  0  0  0
   -6.4670   -2.0356   -2.3772 H   0  0  0  0  0  0  0  0  0  0  0  0
   -7.3898   -2.4584   -0.9442 H   0  0  0  0  0  0  0  0  0  0  0  0
   -5.6672   -2.8877   -1.0351 H   0  0  0  0  0  0  0  0  0  0  0  0
   -7.2190   -0.8471    1.0742 H   0  0  0  0  0  0  0  0  0  0  0  0
   -5.7466   -1.8259    1.1496 H   0  0  0  0  0  0  0  0  0  0  0  0
   -5.8212    1.2414    1.1582 H   0  0  0  0  0  0  0  0  0  0  0  0
   -5.5331    0.1946    2.5558 H   0  0  0  0  0  0  0  0  0  0  0  0
   -1.5028   -1.2750    2.0540 H   0  0  0  0  0  0  0  0  0  0  0  0
    0.9006   -1.3763    1.4901 H   0  0  0  0  0  0  0  0  0  0  0  0
    3.0549    1.2694    1.4818 H   0  0  0  0  0  0  0  0  0  0  0  0
    2.9075   -0.3336    0.7606 H   0  0  0  0  0  0  0  0  0  0  0  0
    2.8748   -0.5697   -1.7651 H   0  0  0  0  0  0  0  0  0  0  0  0
    2.4849    0.8927   -2.7147 H   0  0  0  0  0  0  0  0  0  0  0  0
    1.2786    0.1967   -1.6547 H   0  0  0  0  0  0  0  0  0  0  0  0
    5.6709    0.6666    1.4085 H   0  0  0  0  0  0  0  0  0  0  0  0
    7.2222   -1.2616    1.5398 H   0  0  0  0  0  0  0  0  0  0  0  0
    7.9350   -2.4306   -0.5315 H   0  0  0  0  0  0  0  0  0  0  0  0
    7.1043   -1.6757   -2.7453 H   0  0  0  0  0  0  0  0  0  0  0  0
    5.5424    0.2426   -2.8966 H   0  0  0  0  0  0  0  0  0  0  0  0
    0.8900    2.8738    0.7237 H   0  0  0  0  0  0  0  0  0  0  0  0
   -1.5211    2.9651    1.2962 H   0  0  0  0  0  0  0  0  0  0  0  0
   -2.7648    0.1870   -0.5801 H   0  0  0  0  0  0  0  0  0  0  0  0
   -3.3367   -1.3720    0.0455 H   0  0  0  0  0  0  0  0  0  0  0  0
   -4.9554    0.7422   -1.4554 H   0  0  0  0  0  0  0  0  0  0  0  0
   -4.4625   -0.8071   -2.0901 H   0  0  0  0  0  0  0  0  0  0  0  0
  1  2  1  0
  2  3  1  0
  3  4  1  0
  4  5  1  0
  5  6  1  0
  6  7  2  0
  6  8  1  0
  8  9  2  0
  9 10  1  0
 10 11  2  0
 11 12  1  0
 12 13  1  0
 13 14  1  0
 13 15  1  0
 15 16  2  0
 15 17  2  0
 15 18  1  0
 18 19  2  0
 19 20  1  0
 20 21  2  0
 21 22  1  0
 22 23  2  0
 11 24  1  0
 24 25  2  0
  5 26  1  0
 26 27  1  0
 27  2  1  0
 25  8  1  0
 23 18  1  0
  1 28  1  0
  1 29  1  0
  1 30  1  0
  3 31  1  0
  3 32  1  0
  4 33  1  0
  4 34  1  0
  9 35  1  0
 10 36  1  0
 12 37  1  0
 12 38  1  0
 14 39  1  0
 14 40  1  0
 14 41  1  0
 19 42  1  0
 20 43  1  0
 21 44  1  0
 22 45  1  0
 23 46  1  0
 24 47  1  0
 25 48  1  0
 26 49  1  0
 26 50  1  0
 27 51  1  0
 27 52  1  0
M  END
$$$$
