
     RDKit          3D

 55 58  0  0  0  0  0  0  0  0999 V2000
    9.2879    1.3929    0.1604 C   0  0  0  0  0  0  0  0  0  0  0  0
    8.5779    0.1711   -0.0012 O   0  0  0  0  0  0  0  0  0  0  0  0
    7.2140    0.2396    0.0591 C   0  0  0  0  0  0  0  0  0  0  0  0
    6.4562    1.3940    0.2149 C   0  0  0  0  0  0  0  0  0  0  0  0
    5.0581    1.3191    0.2583 C   0  0  0  0  0  0  0  0  0  0  0  0
    4.3923    0.0928    0.1548 C   0  0  0  0  0  0  0  0  0  0  0  0
    2.9815   -0.0047    0.1800 N   0  0  0  0  0  0  0  0  0  0  0  0
    2.0697    0.9682    0.5270 C   0  0  0  0  0  0  0  0  0  0  0  0
    2.3522    2.0583    1.0165 O   0  0  0  0  0  0  0  0  0  0  0  0
    0.7459    0.6093    0.2900 N   0  0  0  0  0  0  0  0  0  0  0  0
    0.3198   -0.5012   -0.5728 C   0  0  0  0  0  0  0  0  0  0  0  0
   -1.1164   -0.3497   -1.1058 C   0  0  0  0  0  0  0  0  0  0  0  0
   -2.0534   -0.1337    0.0050 N   0  0  0  0  0  0  0  0  0  0  0  0
   -3.4089   -0.2389   -0.2979 C   0  0  0  0  0  0  0  0  0  0  0  0
   -4.3698   -0.1600    0.6912 C   0  0  0  0  0  0  0  0  0  0  0  0
   -5.6919   -0.2925    0.3081 C   0  0  0  0  0  0  0  0  0  0  0  0
   -6.7092   -0.2084    1.3038 N   0  0  0  0  0  0  0  0  0  0  0  0
   -8.0683   -0.3212    1.0925 C   0  0  0  0  0  0  0  0  0  0  0  0
   -8.6818   -0.1770    2.3128 C   0  0  0  0  0  0  0  0  0  0  0  0
   -7.6251    0.0237    3.2144 C   0  0  0  0  0  0  0  0  0  0  0  0
   -6.4302    0.0076    2.6205 N   0  0  0  0  0  0  0  0  0  0  0  0
   -6.0688   -0.5019   -0.9727 N   0  0  0  0  0  0  0  0  0  0  0  0
   -5.0763   -0.5765   -1.8681 C   0  0  0  0  0  0  0  0  0  0  0  0
   -5.4418   -0.8463   -3.2940 C   0  0  0  0  0  0  0  0  0  0  0  0
   -3.7684   -0.4641   -1.5755 N   0  0  0  0  0  0  0  0  0  0  0  0
   -1.6346    0.8198    1.0511 C   0  0  0  0  0  0  0  0  0  0  0  0
   -0.3103    1.5306    0.7136 C   0  0  0  0  0  0  0  0  0  0  0  0
    5.1556   -1.0807   -0.0147 C   0  0  0  0  0  0  0  0  0  0  0  0
    4.5283   -2.4421   -0.1461 C   0  0  0  0  0  0  0  0  0  0  0  0
    6.5597   -0.9877   -0.0569 C   0  0  0  0  0  0  0  0  0  0  0  0
    9.0907    1.8374    1.1419 H   0  0  0  0  0  0  0  0  0  0  0  0
   10.3573    1.1675    0.1058 H   0  0  0  0  0  0  0  0  0  0  0  0
    9.0546    2.0952   -0.6468 H   0  0  0  0  0  0  0  0  0  0  0  0
    6.9121    2.3743    0.3042 H   0  0  0  0  0  0  0  0  0  0  0  0
    4.5123    2.2520    0.3662 H   0  0  0  0  0  0  0  0  0  0  0  0
    2.6010   -0.9331    0.1208 H   0  0  0  0  0  0  0  0  0  0  0  0
    0.3942   -1.4130    0.0322 H   0  0  0  0  0  0  0  0  0  0  0  0
    1.0148   -0.5953   -1.4144 H   0  0  0  0  0  0  0  0  0  0  0  0
   -1.1642    0.4949   -1.8053 H   0  0  0  0  0  0  0  0  0  0  0  0
   -1.3642   -1.2652   -1.6574 H   0  0  0  0  0  0  0  0  0  0  0  0
   -4.0978   -0.0222    1.7299 H   0  0  0  0  0  0  0  0  0  0  0  0
   -8.4605   -0.4931    0.0999 H   0  0  0  0  0  0  0  0  0  0  0  0
   -9.7419   -0.2109    2.5200 H   0  0  0  0  0  0  0  0  0  0  0  0
   -7.6762    0.1817    4.2846 H   0  0  0  0  0  0  0  0  0  0  0  0
   -4.8086   -0.2600   -3.9669 H   0  0  0  0  0  0  0  0  0  0  0  0
   -5.3051   -1.9088   -3.5152 H   0  0  0  0  0  0  0  0  0  0  0  0
   -6.4856   -0.5786   -3.4858 H   0  0  0  0  0  0  0  0  0  0  0  0
   -1.5130    0.2608    1.9865 H   0  0  0  0  0  0  0  0  0  0  0  0
   -2.3901    1.5969    1.2205 H   0  0  0  0  0  0  0  0  0  0  0  0
   -0.4640    2.2364   -0.1123 H   0  0  0  0  0  0  0  0  0  0  0  0
    0.0184    2.1136    1.5810 H   0  0  0  0  0  0  0  0  0  0  0  0
    3.9592   -2.6859    0.7566 H   0  0  0  0  0  0  0  0  0  0  0  0
    5.2827   -3.2252   -0.2794 H   0  0  0  0  0  0  0  0  0  0  0  0
    3.8675   -2.4742   -1.0183 H   0  0  0  0  0  0  0  0  0  0  0  0
    7.1625   -1.8855   -0.1820 H   0  0  0  0  0  0  0  0  0  0  0  0
  1  2  1  0
  2  3  1  0
  3  4  2  0
  4  5  1  0
  5  6  2  0
  6  7  1  0
  7  8  1  0
  8  9  2  0
  8 10  1  0
 10 11  1  0
 11 12  1  0
 12 13  1  0
 13 14  1  0
 14 15  2  0
 15 16  1  0
 16 17  1  0
 17 18  1  0
 18 19  2  0
 19 20  1  0
 20 21  2  0
 16 22  2  0
 22 23  1  0
 23 24  1  0
 23 25  2  0
 13 26  1  0
 26 27  1  0
  6 28  1  0
 28 29  1  0
 28 30  2  0
 30  3  1  0
 27 10  1  0
 25 14  1  0
 21 17  1  0
  1 31  1  0
  1 32  1  0
  1 33  1  0
  4 34  1  0
  5 35  1  0
  7 36  1  0
 11 37  1  0
 11 38  1  0
 12 39  1  0
 12 40  1  0
 15 41  1  0
 18 42  1  0
 19 43  1  0
 20 44  1  0
 24 45  1  0
 24 46  1  0
 24 47  1  0
 26 48  1  0
 26 49  1  0
 27 50  1  0
 27 51  1  0
 29 52  1  0
 29 53  1  0
 29 54  1  0
 30 55  1  0
M  END
$$$$
