
     RDKit          3D

 49 52  0  0  0  0  0  0  0  0999 V2000
    7.4340    2.7118   -1.3001 C   0  0  0  0  0  0  0  0  0  0  0  0
    7.5977    1.3075   -1.4546 O   0  0  0  0  0  0  0  0  0  0  0  0
    6.9833    0.5513   -0.4123 C   0  0  0  0  0  0  0  0  0  0  0  0
    5.4770    0.4380   -0.6191 C   0  0  0  0  0  0  0  0  0  0  0  0
    4.8566   -0.5380    0.3773 C   0  0  0  0  0  0  0  0  0  0  0  0
    3.3996   -0.5908    0.2488 N   0  0  0  0  0  0  0  0  0  0  0  0
    2.8322   -1.5075   -0.6167 C   0  0  0  0  0  0  0  0  0  0  0  0
    1.5080   -1.5700   -0.7871 C   0  0  0  0  0  0  0  0  0  0  0  0
    0.6427   -0.6715   -0.0568 C   0  0  0  0  0  0  0  0  0  0  0  0
    1.1429    0.2521    0.7855 C   0  0  0  0  0  0  0  0  0  0  0  0
    0.3393    1.1258    1.4959 N   0  0  0  0  0  0  0  0  0  0  0  0
   -0.9180    1.0903    1.3929 N   0  0  0  0  0  0  0  0  0  0  0  0
   -1.5182    0.1795    0.5715 C   0  0  0  0  0  0  0  0  0  0  0  0
   -2.8350   -0.1029    0.2721 C   0  0  0  0  0  0  0  0  0  0  0  0
   -3.9694    0.5895    0.8470 C   0  0  0  0  0  0  0  0  0  0  0  0
   -4.8800    1.2574    0.0191 C   0  0  0  0  0  0  0  0  0  0  0  0
   -5.9846    1.9117    0.5718 C   0  0  0  0  0  0  0  0  0  0  0  0
   -6.1797    1.8976    1.9512 C   0  0  0  0  0  0  0  0  0  0  0  0
   -7.5421    2.6990    2.6275 Cl  0  0  0  0  0  0  0  0  0  0  0  0
   -5.2789    1.2386    2.7844 C   0  0  0  0  0  0  0  0  0  0  0  0
   -4.1734    0.5858    2.2325 C   0  0  0  0  0  0  0  0  0  0  0  0
   -2.7785   -1.1767   -0.6562 C   0  0  0  0  0  0  0  0  0  0  0  0
   -3.9264   -1.9091   -1.2819 C   0  0  0  0  0  0  0  0  0  0  0  0
   -4.7665   -2.5010   -0.2855 O   0  0  0  0  0  0  0  0  0  0  0  0
   -5.9323   -3.0752   -0.8562 C   0  0  0  0  0  0  0  0  0  0  0  0
   -1.5146   -1.5183   -0.9464 N   0  0  0  0  0  0  0  0  0  0  0  0
   -0.7466   -0.7051   -0.1711 N   0  0  0  0  0  0  0  0  0  0  0  0
    2.6345    0.3417    0.9633 C   0  0  0  0  0  0  0  0  0  0  0  0
    3.1321    1.1937    1.6991 O   0  0  0  0  0  0  0  0  0  0  0  0
    6.3827    2.9960   -1.3932 H   0  0  0  0  0  0  0  0  0  0  0  0
    7.9932    3.2098   -2.0967 H   0  0  0  0  0  0  0  0  0  0  0  0
    7.8333    3.0444   -0.3367 H   0  0  0  0  0  0  0  0  0  0  0  0
    7.4324   -0.4478   -0.4467 H   0  0  0  0  0  0  0  0  0  0  0  0
    7.2251    0.9816    0.5674 H   0  0  0  0  0  0  0  0  0  0  0  0
    5.0097    1.4242   -0.5157 H   0  0  0  0  0  0  0  0  0  0  0  0
    5.2675    0.1196   -1.6476 H   0  0  0  0  0  0  0  0  0  0  0  0
    5.1090   -0.2338    1.4001 H   0  0  0  0  0  0  0  0  0  0  0  0
    5.2658   -1.5461    0.2392 H   0  0  0  0  0  0  0  0  0  0  0  0
    3.5021   -2.1731   -1.1530 H   0  0  0  0  0  0  0  0  0  0  0  0
    1.0639   -2.2919   -1.4674 H   0  0  0  0  0  0  0  0  0  0  0  0
   -4.7342    1.2857   -1.0578 H   0  0  0  0  0  0  0  0  0  0  0  0
   -6.6851    2.4295   -0.0777 H   0  0  0  0  0  0  0  0  0  0  0  0
   -5.4295    1.2242    3.8603 H   0  0  0  0  0  0  0  0  0  0  0  0
   -3.4800    0.0679    2.8915 H   0  0  0  0  0  0  0  0  0  0  0  0
   -3.5540   -2.7019   -1.9428 H   0  0  0  0  0  0  0  0  0  0  0  0
   -4.5112   -1.2075   -1.8883 H   0  0  0  0  0  0  0  0  0  0  0  0
   -6.4892   -3.5840   -0.0656 H   0  0  0  0  0  0  0  0  0  0  0  0
   -6.5677   -2.2940   -1.2838 H   0  0  0  0  0  0  0  0  0  0  0  0
   -5.6689   -3.8079   -1.6256 H   0  0  0  0  0  0  0  0  0  0  0  0
  1  2  1  0
  2  3  1  0
  3  4  1  0
  4  5  1  0
  5  6  1  0
  6  7  1  0
  7  8  2  0
  8  9  1  0
  9 10  2  0
 10 11  1  0
 11 12  2  0
 12 13  1  0
 13 14  2  0
 14 15  1  0
 15 16  2  0
 16 17  1  0
 17 18  2  0
 18 19  1  0
 18 20  1  0
 20 21  2  0
 14 22  1  0
 22 23  1  0
 23 24  1  0
 24 25  1  0
 22 26  2  0
 26 27  1  0
 10 28  1  0
 28 29  2  0
 28  6  1  0
 27  9  1  0
 27 13  1  0
 21 15  1  0
  1 30  1  0
  1 31  1  0
  1 32  1  0
  3 33  1  0
  3 34  1  0
  4 35  1  0
  4 36  1  0
  5 37  1  0
  5 38  1  0
  7 39  1  0
  8 40  1  0
 16 41  1  0
 17 42  1  0
 20 43  1  0
 21 44  1  0
 23 45  1  0
 23 46  1  0
 25 47  1  0
 25 48  1  0
 25 49  1  0
M  END
$$$$
