
     RDKit          3D

 48 50  0  0  0  0  0  0  0  0999 V2000
   -3.6809    2.4015    0.9760 C   0  0  0  0  0  0  0  0  0  0  0  0
   -3.4951    0.9825    0.5810 N   0  0  0  0  0  0  0  0  0  0  0  0
   -3.9737    0.0731    1.6449 C   0  0  0  0  0  0  0  0  0  0  0  0
   -4.1064    0.6602   -0.9811 S   0  0  0  0  0  6  0  0  0  0  0  0
   -3.6923    1.7508   -1.8321 O   0  0  0  0  0  0  0  0  0  0  0  0
   -5.4913    0.2754   -0.8558 O   0  0  0  0  0  0  0  0  0  0  0  0
   -3.1903   -0.6688   -1.4010 N   0  0  0  0  0  0  0  0  0  0  0  0
   -3.7499   -2.0245   -1.2861 C   0  0  0  0  0  0  0  0  0  0  0  0
   -2.7297   -3.0669   -1.7338 C   0  0  0  0  0  0  0  0  0  0  0  0
   -1.4147   -2.9716   -0.9520 C   0  0  0  0  0  0  0  0  0  0  0  0
   -1.0672   -1.5294   -0.5388 C   0  0  0  0  0  0  0  0  0  0  0  0
    0.4351   -1.2661   -0.4618 C   0  0  0  0  0  0  0  0  0  0  0  0
    1.2525   -2.0393   -0.9467 O   0  0  0  0  0  0  0  0  0  0  0  0
    0.7251   -0.0847    0.2073 N   0  0  0  0  0  0  0  0  0  0  0  0
    1.9977    0.4653    0.4725 C   0  0  0  0  0  0  0  0  0  0  0  0
    2.0289    1.6816    1.1703 C   0  0  0  0  0  0  0  0  0  0  0  0
    3.2446    2.2936    1.4892 C   0  0  0  0  0  0  0  0  0  0  0  0
    4.4397    1.6926    1.1147 C   0  0  0  0  0  0  0  0  0  0  0  0
    4.4184    0.4964    0.3940 C   0  0  0  0  0  0  0  0  0  0  0  0
    3.2036   -0.1224    0.0864 C   0  0  0  0  0  0  0  0  0  0  0  0
    5.5581   -0.1368   -0.0355 O   0  0  0  0  0  0  0  0  0  0  0  0
    6.6908    0.7370    0.0147 C   0  0  0  0  0  0  0  0  0  0  0  0
    6.7342    1.4793    1.3396 C   0  0  0  0  0  0  0  0  0  0  0  0
    5.5942    2.3347    1.4802 O   0  0  0  0  0  0  0  0  0  0  0  0
   -1.7246   -0.5324   -1.4921 C   0  0  0  0  0  0  0  0  0  0  0  0
   -3.1002    3.0560    0.3194 H   0  0  0  0  0  0  0  0  0  0  0  0
   -4.7373    2.6851    0.9483 H   0  0  0  0  0  0  0  0  0  0  0  0
   -3.3032    2.5632    1.9904 H   0  0  0  0  0  0  0  0  0  0  0  0
   -5.0574    0.1446    1.7765 H   0  0  0  0  0  0  0  0  0  0  0  0
   -3.4980    0.3335    2.5965 H   0  0  0  0  0  0  0  0  0  0  0  0
   -3.6935   -0.9588    1.4354 H   0  0  0  0  0  0  0  0  0  0  0  0
   -4.6358   -2.1025   -1.9249 H   0  0  0  0  0  0  0  0  0  0  0  0
   -4.0531   -2.2327   -0.2576 H   0  0  0  0  0  0  0  0  0  0  0  0
   -3.1480   -4.0747   -1.6314 H   0  0  0  0  0  0  0  0  0  0  0  0
   -2.5185   -2.9259   -2.8016 H   0  0  0  0  0  0  0  0  0  0  0  0
   -0.6260   -3.4298   -1.5574 H   0  0  0  0  0  0  0  0  0  0  0  0
   -1.4877   -3.5837   -0.0436 H   0  0  0  0  0  0  0  0  0  0  0  0
   -1.4659   -1.3773    0.4744 H   0  0  0  0  0  0  0  0  0  0  0  0
   -0.0616    0.4457    0.5646 H   0  0  0  0  0  0  0  0  0  0  0  0
    1.1081    2.1726    1.4778 H   0  0  0  0  0  0  0  0  0  0  0  0
    3.2569    3.2327    2.0358 H   0  0  0  0  0  0  0  0  0  0  0  0
    3.2367   -1.0576   -0.4620 H   0  0  0  0  0  0  0  0  0  0  0  0
    7.5883    0.1230   -0.1041 H   0  0  0  0  0  0  0  0  0  0  0  0
    6.6361    1.4298   -0.8338 H   0  0  0  0  0  0  0  0  0  0  0  0
    6.7541    0.7840    2.1878 H   0  0  0  0  0  0  0  0  0  0  0  0
    7.6286    2.1077    1.3927 H   0  0  0  0  0  0  0  0  0  0  0  0
   -1.4181    0.4937   -1.2621 H   0  0  0  0  0  0  0  0  0  0  0  0
   -1.4111   -0.7097   -2.5284 H   0  0  0  0  0  0  0  0  0  0  0  0
  1  2  1  0
  2  3  1  0
  2  4  1  0
  4  5  2  0
  4  6  2  0
  4  7  1  0
  7  8  1  0
  8  9  1  0
  9 10  1  0
 10 11  1  0
 11 12  1  0
 12 13  2  0
 12 14  1  0
 14 15  1  0
 15 16  2  0
 16 17  1  0
 17 18  2  0
 18 19  1  0
 19 20  2  0
 19 21  1  0
 21 22  1  0
 22 23  1  0
 23 24  1  0
 11 25  1  0
 25  7  1  0
 20 15  1  0
 24 18  1  0
  1 26  1  0
  1 27  1  0
  1 28  1  0
  3 29  1  0
  3 30  1  0
  3 31  1  0
  8 32  1  0
  8 33  1  0
  9 34  1  0
  9 35  1  0
 10 36  1  0
 10 37  1  0
 11 38  1  0
 14 39  1  0
 16 40  1  0
 17 41  1  0
 20 42  1  0
 22 43  1  0
 22 44  1  0
 23 45  1  0
 23 46  1  0
 25 47  1  0
 25 48  1  0
M  END
$$$$
