
     RDKit          3D

 41 44  0  0  0  0  0  0  0  0999 V2000
   -6.7286   -0.5365   -0.6464 C   0  0  0  0  0  0  0  0  0  0  0  0
   -6.1241   -1.3980    0.2601 C   0  0  0  0  0  0  0  0  0  0  0  0
   -4.7656   -1.2527    0.5706 C   0  0  0  0  0  0  0  0  0  0  0  0
   -3.9700   -0.2534   -0.0133 C   0  0  0  0  0  0  0  0  0  0  0  0
   -2.6268   -0.1025    0.2962 N   0  0  0  0  0  0  0  0  0  0  0  0
   -2.0189   -0.7656    1.4596 C   0  0  0  0  0  0  0  0  0  0  0  0
   -0.7289   -0.0234    1.8773 C   0  0  0  0  0  0  0  0  0  0  0  0
    0.3230    0.0161    0.8359 N   0  0  0  0  0  0  0  0  0  0  0  0
    1.1831    1.1999    1.0296 C   0  0  0  0  0  0  0  0  0  0  0  0
    2.4675    1.1389    0.2690 C   0  0  0  0  0  0  0  0  0  0  0  0
    3.5510    0.4262    0.4859 N   0  0  0  0  0  0  0  0  0  0  0  0
    4.3672    0.8158   -0.5498 C   0  0  0  0  0  0  0  0  0  0  0  0
    5.8029    0.2228   -0.7441 C   0  0  0  0  0  0  0  0  0  0  0  0
    6.3515   -0.7273    0.0909 C   0  0  0  0  0  0  0  0  0  0  0  0
    7.6699   -1.0948   -0.3104 C   0  0  0  0  0  0  0  0  0  0  0  0
    8.0745   -0.4103   -1.4358 C   0  0  0  0  0  0  0  0  0  0  0  0
    6.8681    0.6661   -1.9999 S   0  0  0  0  0  0  0  0  0  0  0  0
    3.8331    1.7392   -1.3624 N   0  0  0  0  0  0  0  0  0  0  0  0
    2.5690    1.9579   -0.8183 O   0  0  0  0  0  0  0  0  0  0  0  0
   -0.2670   -0.0577   -0.5191 C   0  0  0  0  0  0  0  0  0  0  0  0
   -1.6981    0.5135   -0.6667 C   0  0  0  0  0  0  0  0  0  0  0  0
   -4.6154    0.6034   -0.9216 C   0  0  0  0  0  0  0  0  0  0  0  0
   -5.9732    0.4678   -1.2378 C   0  0  0  0  0  0  0  0  0  0  0  0
   -7.7817   -0.6459   -0.8887 H   0  0  0  0  0  0  0  0  0  0  0  0
   -6.7029   -2.1897    0.7281 H   0  0  0  0  0  0  0  0  0  0  0  0
   -4.3367   -1.9635    1.2708 H   0  0  0  0  0  0  0  0  0  0  0  0
   -1.7969   -1.8135    1.2239 H   0  0  0  0  0  0  0  0  0  0  0  0
   -2.7003   -0.7434    2.3185 H   0  0  0  0  0  0  0  0  0  0  0  0
   -0.3138   -0.5012    2.7722 H   0  0  0  0  0  0  0  0  0  0  0  0
   -1.0191    0.9979    2.1619 H   0  0  0  0  0  0  0  0  0  0  0  0
    1.4590    1.2736    2.0899 H   0  0  0  0  0  0  0  0  0  0  0  0
    0.6392    2.1202    0.7809 H   0  0  0  0  0  0  0  0  0  0  0  0
    5.8311   -1.1398    0.9477 H   0  0  0  0  0  0  0  0  0  0  0  0
    8.2880   -1.8235    0.1998 H   0  0  0  0  0  0  0  0  0  0  0  0
    9.0190   -0.4884   -1.9567 H   0  0  0  0  0  0  0  0  0  0  0  0
   -0.3051   -1.1230   -0.7846 H   0  0  0  0  0  0  0  0  0  0  0  0
    0.3826    0.4001   -1.2735 H   0  0  0  0  0  0  0  0  0  0  0  0
   -1.6820    1.5986   -0.5097 H   0  0  0  0  0  0  0  0  0  0  0  0
   -2.0181    0.3225   -1.6984 H   0  0  0  0  0  0  0  0  0  0  0  0
   -4.0716    1.4195   -1.3890 H   0  0  0  0  0  0  0  0  0  0  0  0
   -6.4349    1.1539   -1.9425 H   0  0  0  0  0  0  0  0  0  0  0  0
  1  2  2  0
  2  3  1  0
  3  4  2  0
  4  5  1  0
  5  6  1  0
  6  7  1  0
  7  8  1  0
  8  9  1  0
  9 10  1  0
 10 11  2  0
 11 12  1  0
 12 13  1  0
 13 14  2  0
 14 15  1  0
 15 16  2  0
 16 17  1  0
 12 18  2  0
 18 19  1  0
  8 20  1  0
 20 21  1  0
  4 22  1  0
 22 23  2  0
 23  1  1  0
 21  5  1  0
 19 10  1  0
 17 13  1  0
  1 24  1  0
  2 25  1  0
  3 26  1  0
  6 27  1  0
  6 28  1  0
  7 29  1  0
  7 30  1  0
  9 31  1  0
  9 32  1  0
 14 33  1  0
 15 34  1  0
 16 35  1  0
 20 36  1  0
 20 37  1  0
 21 38  1  0
 21 39  1  0
 22 40  1  0
 23 41  1  0
M  END
$$$$
