
     RDKit          3D

 51 54  0  0  0  0  0  0  0  0999 V2000
    1.0517   -1.8833   -1.2632 O   0  0  0  0  0  0  0  0  0  0  0  0
    0.6978   -1.5823   -0.1238 C   0  0  0  0  0  0  0  0  0  0  0  0
   -0.6830   -1.9431    0.4396 C   0  0  0  0  0  0  0  0  0  0  0  0
   -1.7199   -1.0647   -0.1124 N   0  0  0  0  0  0  0  0  0  0  0  0
   -1.7272    0.2435    0.3842 C   0  0  0  0  0  0  0  0  0  0  0  0
   -0.9324    0.6039    1.2581 O   0  0  0  0  0  0  0  0  0  0  0  0
   -2.7043    1.2181   -0.2739 C   0  0  2  0  0  0  0  0  0  0  0  0
   -2.5656    2.6647    0.2002 C   0  0  0  0  0  0  0  0  0  0  0  0
   -3.4905    2.7400    1.4121 C   0  0  0  0  0  0  0  0  0  0  0  0
   -4.6300    1.8047    1.0418 C   0  0  0  0  0  0  0  0  0  0  0  0
   -4.0228    0.8183    0.1719 N   0  0  0  0  0  0  0  0  0  0  0  0
   -4.7000   -0.2852   -0.2727 C   0  0  0  0  0  0  0  0  0  0  0  0
   -5.8646   -0.5131    0.0435 O   0  0  0  0  0  0  0  0  0  0  0  0
   -3.9961   -1.2169   -1.1919 C   0  0  0  0  0  0  0  0  0  0  0  0
   -4.8264   -1.8216   -2.1605 C   0  0  0  0  0  0  0  0  0  0  0  0
   -4.3300   -2.7777   -3.0417 C   0  0  0  0  0  0  0  0  0  0  0  0
   -2.9982   -3.1473   -2.9594 C   0  0  0  0  0  0  0  0  0  0  0  0
   -2.1677   -2.5630   -1.9950 C   0  0  0  0  0  0  0  0  0  0  0  0
   -2.6368   -1.5877   -1.0890 C   0  0  0  0  0  0  0  0  0  0  0  0
    1.4639   -0.8201    0.7421 N   0  0  0  0  0  0  0  0  0  0  0  0
    2.7451   -0.2793    0.3282 C   0  0  0  0  0  0  0  0  0  0  0  0
    3.6718   -0.0988    1.5271 C   0  0  0  0  0  0  0  0  0  0  0  0
    5.0169    0.4578    1.1332 C   0  0  0  0  0  0  0  0  0  0  0  0
    5.2819    1.8321    1.2440 C   0  0  0  0  0  0  0  0  0  0  0  0
    6.5289    2.3436    0.8808 C   0  0  0  0  0  0  0  0  0  0  0  0
    7.5189    1.4881    0.4003 C   0  0  0  0  0  0  0  0  0  0  0  0
    7.2609    0.1211    0.2753 C   0  0  0  0  0  0  0  0  0  0  0  0
    6.0143   -0.3919    0.6351 C   0  0  0  0  0  0  0  0  0  0  0  0
   -0.6746   -1.8420    1.5322 H   0  0  0  0  0  0  0  0  0  0  0  0
   -0.8907   -3.0008    0.2417 H   0  0  0  0  0  0  0  0  0  0  0  0
   -2.6060    1.1604   -1.3639 H   0  0  0  0  0  0  0  0  0  0  0  0
   -2.9410    3.3427   -0.5791 H   0  0  0  0  0  0  0  0  0  0  0  0
   -1.5407    2.9632    0.4401 H   0  0  0  0  0  0  0  0  0  0  0  0
   -3.8364    3.7608    1.6146 H   0  0  0  0  0  0  0  0  0  0  0  0
   -2.9732    2.3708    2.3084 H   0  0  0  0  0  0  0  0  0  0  0  0
   -5.0823    1.3246    1.9143 H   0  0  0  0  0  0  0  0  0  0  0  0
   -5.4085    2.3252    0.4751 H   0  0  0  0  0  0  0  0  0  0  0  0
   -5.8811   -1.5525   -2.2179 H   0  0  0  0  0  0  0  0  0  0  0  0
   -4.9853   -3.2339   -3.7816 H   0  0  0  0  0  0  0  0  0  0  0  0
   -2.5934   -3.8914   -3.6428 H   0  0  0  0  0  0  0  0  0  0  0  0
   -1.1264   -2.8766   -2.0006 H   0  0  0  0  0  0  0  0  0  0  0  0
    0.9182   -0.2476    1.3948 H   0  0  0  0  0  0  0  0  0  0  0  0
    3.1978   -0.9464   -0.4157 H   0  0  0  0  0  0  0  0  0  0  0  0
    2.5518    0.6812   -0.1692 H   0  0  0  0  0  0  0  0  0  0  0  0
    3.8149   -1.0622    2.0383 H   0  0  0  0  0  0  0  0  0  0  0  0
    3.2055    0.5574    2.2722 H   0  0  0  0  0  0  0  0  0  0  0  0
    4.5220    2.5144    1.6193 H   0  0  0  0  0  0  0  0  0  0  0  0
    6.7299    3.4115    0.9765 H   0  0  0  0  0  0  0  0  0  0  0  0
    8.4909    1.8872    0.1254 H   0  0  0  0  0  0  0  0  0  0  0  0
    8.0300   -0.5456   -0.1019 H   0  0  0  0  0  0  0  0  0  0  0  0
    5.8222   -1.4604    0.5281 H   0  0  0  0  0  0  0  0  0  0  0  0
  1  2  2  0
  2  3  1  0
  3  4  1  0
  4  5  1  0
  5  6  2  0
  5  7  1  0
  7  8  1  0
  8  9  1  0
  9 10  1  0
 10 11  1  0
 11 12  1  0
 12 13  2  0
 12 14  1  0
 14 15  2  0
 15 16  1  0
 16 17  2  0
 17 18  1  0
 18 19  2  0
  2 20  1  0
 20 21  1  0
 21 22  1  0
 22 23  1  0
 23 24  2  0
 24 25  1  0
 25 26  2  0
 26 27  1  0
 27 28  2  0
 19  4  1  0
 28 23  1  0
 11  7  1  0
 19 14  1  0
  3 29  1  0
  3 30  1  0
  7 31  1  6
  8 32  1  0
  8 33  1  0
  9 34  1  0
  9 35  1  0
 10 36  1  0
 10 37  1  0
 15 38  1  0
 16 39  1  0
 17 40  1  0
 18 41  1  0
 20 42  1  0
 21 43  1  0
 21 44  1  0
 22 45  1  0
 22 46  1  0
 24 47  1  0
 25 48  1  0
 26 49  1  0
 27 50  1  0
 28 51  1  0
M  END
$$$$
