
     RDKit          3D

 42 43  0  0  0  0  0  0  0  0999 V2000
   -5.2812   -0.9748    1.7044 C   0  0  0  0  0  0  0  0  0  0  0  0
   -5.1460   -0.4025    0.2912 C   0  0  0  0  0  0  0  0  0  0  0  0
   -5.5322   -1.4468   -0.7593 C   0  0  0  0  0  0  0  0  0  0  0  0
   -3.7535    0.1492    0.0437 C   0  0  0  0  0  0  0  0  0  0  0  0
   -3.5823    1.5118   -0.2322 C   0  0  0  0  0  0  0  0  0  0  0  0
   -2.3076    2.0360   -0.4620 C   0  0  0  0  0  0  0  0  0  0  0  0
   -1.1804    1.2148   -0.4229 C   0  0  0  0  0  0  0  0  0  0  0  0
    0.0019    1.8574   -0.6642 O   0  0  0  0  0  0  0  0  0  0  0  0
    1.1807    1.0557   -0.6944 C   0  0  0  0  0  0  0  0  0  0  0  0
    2.4114    1.9223   -1.0099 C   0  0  0  0  0  0  0  0  0  0  0  0
    2.2864    3.0111   -1.5808 O   0  0  0  0  0  0  0  0  0  0  0  0
    3.6628    1.4760   -0.5575 N   0  0  0  0  0  0  0  0  0  0  0  0
    4.7396    2.4606   -0.5131 C   0  0  0  0  0  0  0  0  0  0  0  0
    3.9499    0.1650   -0.0764 C   0  0  0  0  0  0  0  0  0  0  0  0
    4.7887   -0.0163    1.0326 C   0  0  0  0  0  0  0  0  0  0  0  0
    5.0859   -1.2982    1.5041 C   0  0  0  0  0  0  0  0  0  0  0  0
    4.5655   -2.4169    0.8599 C   0  0  0  0  0  0  0  0  0  0  0  0
    3.7578   -2.2544   -0.2619 C   0  0  0  0  0  0  0  0  0  0  0  0
    3.4581   -0.9717   -0.7308 C   0  0  0  0  0  0  0  0  0  0  0  0
   -1.3391   -0.1424   -0.1478 C   0  0  0  0  0  0  0  0  0  0  0  0
   -2.6157   -0.6697    0.0832 C   0  0  0  0  0  0  0  0  0  0  0  0
   -5.0169   -0.2241    2.4576 H   0  0  0  0  0  0  0  0  0  0  0  0
   -6.3126   -1.2913    1.8943 H   0  0  0  0  0  0  0  0  0  0  0  0
   -4.6332   -1.8445    1.8584 H   0  0  0  0  0  0  0  0  0  0  0  0
   -5.8678    0.4208    0.2069 H   0  0  0  0  0  0  0  0  0  0  0  0
   -5.4474   -1.0344   -1.7709 H   0  0  0  0  0  0  0  0  0  0  0  0
   -4.8949   -2.3362   -0.7070 H   0  0  0  0  0  0  0  0  0  0  0  0
   -6.5684   -1.7718   -0.6158 H   0  0  0  0  0  0  0  0  0  0  0  0
   -4.4387    2.1810   -0.2717 H   0  0  0  0  0  0  0  0  0  0  0  0
   -2.1922    3.0962   -0.6756 H   0  0  0  0  0  0  0  0  0  0  0  0
    1.0833    0.3145   -1.4933 H   0  0  0  0  0  0  0  0  0  0  0  0
    1.3151    0.5894    0.2871 H   0  0  0  0  0  0  0  0  0  0  0  0
    4.6149    3.2188   -1.2920 H   0  0  0  0  0  0  0  0  0  0  0  0
    5.7103    1.9795   -0.6715 H   0  0  0  0  0  0  0  0  0  0  0  0
    4.7191    2.9612    0.4601 H   0  0  0  0  0  0  0  0  0  0  0  0
    5.1978    0.8356    1.5694 H   0  0  0  0  0  0  0  0  0  0  0  0
    5.7240   -1.4209    2.3759 H   0  0  0  0  0  0  0  0  0  0  0  0
    4.8008   -3.4141    1.2234 H   0  0  0  0  0  0  0  0  0  0  0  0
    3.3753   -3.1271   -0.7858 H   0  0  0  0  0  0  0  0  0  0  0  0
    2.8872   -0.8874   -1.6506 H   0  0  0  0  0  0  0  0  0  0  0  0
   -0.4951   -0.8218   -0.1012 H   0  0  0  0  0  0  0  0  0  0  0  0
   -2.7110   -1.7321    0.2964 H   0  0  0  0  0  0  0  0  0  0  0  0
  1  2  1  0
  2  3  1  0
  2  4  1  0
  4  5  2  0
  5  6  1  0
  6  7  2  0
  7  8  1  0
  8  9  1  0
  9 10  1  0
 10 11  2  0
 10 12  1  0
 12 13  1  0
 12 14  1  0
 14 15  2  0
 15 16  1  0
 16 17  2  0
 17 18  1  0
 18 19  2  0
  7 20  1  0
 20 21  2  0
 21  4  1  0
 19 14  1  0
  1 22  1  0
  1 23  1  0
  1 24  1  0
  2 25  1  0
  3 26  1  0
  3 27  1  0
  3 28  1  0
  5 29  1  0
  6 30  1  0
  9 31  1  0
  9 32  1  0
 13 33  1  0
 13 34  1  0
 13 35  1  0
 15 36  1  0
 16 37  1  0
 17 38  1  0
 18 39  1  0
 19 40  1  0
 20 41  1  0
 21 42  1  0
M  END
$$$$
