
     RDKit          3D

 37 39  0  0  0  0  0  0  0  0999 V2000
    1.2364   -0.6064   -2.0035 O   0  0  0  0  0  0  0  0  0  0  0  0
    1.6518    0.1134   -1.0994 C   0  0  0  0  0  0  0  0  0  0  0  0
    2.8670   -0.1260   -0.5012 N   0  0  0  0  0  0  0  0  0  0  0  0
    3.7425   -1.2179   -0.8982 C   0  0  0  0  0  0  0  0  0  0  0  0
    3.1876   -2.5983   -0.5266 C   0  0  0  0  0  0  0  0  0  0  0  0
    2.2183   -3.0601   -1.4636 O   0  0  0  0  0  0  0  0  0  0  0  0
    0.9129    1.2369   -0.5467 C   0  0  0  0  0  0  0  0  0  0  0  0
    1.4386    2.3621    0.0975 C   0  0  0  0  0  0  0  0  0  0  0  0
    0.3246    3.1512    0.4039 C   0  0  0  0  0  0  0  0  0  0  0  0
    0.0784    4.3466    0.9969 O   0  0  0  0  0  0  0  0  0  0  0  0
   -1.2775    4.4844    0.9307 C   0  0  0  0  0  0  0  0  0  0  0  0
   -1.8964    3.4201    0.3147 C   0  0  0  0  0  0  0  0  0  0  0  0
   -0.8157    2.5728   -0.0131 C   0  0  0  0  0  0  0  0  0  0  0  0
   -0.4781    1.3733   -0.5975 N   0  0  0  0  0  0  0  0  0  0  0  0
   -1.4682    0.4602   -1.1522 C   0  0  0  0  0  0  0  0  0  0  0  0
   -1.9060   -0.5697   -0.1454 C   0  0  0  0  0  0  0  0  0  0  0  0
   -1.2568   -1.8084   -0.0387 C   0  0  0  0  0  0  0  0  0  0  0  0
   -1.6626   -2.7463    0.9148 C   0  0  0  0  0  0  0  0  0  0  0  0
   -2.7240   -2.4612    1.7722 C   0  0  0  0  0  0  0  0  0  0  0  0
   -3.3837   -1.2388    1.6716 C   0  0  0  0  0  0  0  0  0  0  0  0
   -2.9737   -0.3094    0.7189 C   0  0  0  0  0  0  0  0  0  0  0  0
   -3.6401    0.8503    0.6295 F   0  0  0  0  0  0  0  0  0  0  0  0
    3.1016    0.3955    0.3322 H   0  0  0  0  0  0  0  0  0  0  0  0
    4.6939   -1.0493   -0.3841 H   0  0  0  0  0  0  0  0  0  0  0  0
    3.9015   -1.1463   -1.9796 H   0  0  0  0  0  0  0  0  0  0  0  0
    3.9991   -3.3324   -0.5242 H   0  0  0  0  0  0  0  0  0  0  0  0
    2.7293   -2.5886    0.4674 H   0  0  0  0  0  0  0  0  0  0  0  0
    1.7541   -2.2730   -1.8230 H   0  0  0  0  0  0  0  0  0  0  0  0
    2.4753    2.5930    0.2935 H   0  0  0  0  0  0  0  0  0  0  0  0
   -1.6561    5.3986    1.3678 H   0  0  0  0  0  0  0  0  0  0  0  0
   -2.9533    3.2849    0.1402 H   0  0  0  0  0  0  0  0  0  0  0  0
   -2.3237    1.0562   -1.4935 H   0  0  0  0  0  0  0  0  0  0  0  0
   -1.0596   -0.0062   -2.0523 H   0  0  0  0  0  0  0  0  0  0  0  0
   -0.4337   -2.0624   -0.7028 H   0  0  0  0  0  0  0  0  0  0  0  0
   -1.1483   -3.7027    0.9828 H   0  0  0  0  0  0  0  0  0  0  0  0
   -3.0387   -3.1925    2.5121 H   0  0  0  0  0  0  0  0  0  0  0  0
   -4.2168   -1.0036    2.3262 H   0  0  0  0  0  0  0  0  0  0  0  0
  1  2  2  0
  2  3  1  0
  3  4  1  0
  4  5  1  0
  5  6  1  0
  2  7  1  0
  7  8  2  0
  8  9  1  0
  9 10  1  0
 10 11  1  0
 11 12  2  0
 12 13  1  0
 13 14  1  0
 14 15  1  0
 15 16  1  0
 16 17  2  0
 17 18  1  0
 18 19  2  0
 19 20  1  0
 20 21  2  0
 21 22  1  0
 14  7  1  0
 21 16  1  0
 13  9  2  0
  3 23  1  0
  4 24  1  0
  4 25  1  0
  5 26  1  0
  5 27  1  0
  6 28  1  0
  8 29  1  0
 11 30  1  0
 12 31  1  0
 15 32  1  0
 15 33  1  0
 17 34  1  0
 18 35  1  0
 19 36  1  0
 20 37  1  0
M  END
$$$$
