
     RDKit          3D

 22 23  0  0  0  0  0  0  0  0999 V2000
    3.8470    1.1280    0.1698 C   0  0  0  0  0  0  0  0  0  0  0  0
    2.7299    0.1828   -0.0918 C   0  0  0  0  0  0  0  0  0  0  0  0
    2.7566   -1.0781   -0.5267 C   0  0  0  0  0  0  0  0  0  0  0  0
    4.1788   -1.9507   -0.9071 Cl  0  0  0  0  0  0  0  0  0  0  0  0
    1.2166   -1.8221   -0.6952 S   0  0  0  0  0  0  0  0  0  0  0  0
    0.4213   -0.3975   -0.1605 N   0  0  0  0  0  0  0  0  0  0  0  0
   -1.0057   -0.3221   -0.0537 C   0  0  0  0  0  0  0  0  0  0  0  0
   -1.8282   -1.4183   -0.3839 C   0  0  0  0  0  0  0  0  0  0  0  0
   -3.2250   -1.3508   -0.2816 C   0  0  0  0  0  0  0  0  0  0  0  0
   -3.8315   -0.1810    0.1548 C   0  0  0  0  0  0  0  0  0  0  0  0
   -5.5431   -0.0938    0.2817 Cl  0  0  0  0  0  0  0  0  0  0  0  0
   -3.0514    0.9177    0.4882 C   0  0  0  0  0  0  0  0  0  0  0  0
   -1.6543    0.8449    0.3841 C   0  0  0  0  0  0  0  0  0  0  0  0
    1.3255    0.6277    0.1407 C   0  0  0  0  0  0  0  0  0  0  0  0
    1.1039    1.7622    0.5432 O   0  0  0  0  0  0  0  0  0  0  0  0
    3.7474    2.0192   -0.4584 H   0  0  0  0  0  0  0  0  0  0  0  0
    3.8424    1.4429    1.2184 H   0  0  0  0  0  0  0  0  0  0  0  0
    4.8267    0.6878   -0.0370 H   0  0  0  0  0  0  0  0  0  0  0  0
   -1.4123   -2.3603   -0.7312 H   0  0  0  0  0  0  0  0  0  0  0  0
   -3.8256   -2.2175   -0.5455 H   0  0  0  0  0  0  0  0  0  0  0  0
   -3.5143    1.8397    0.8313 H   0  0  0  0  0  0  0  0  0  0  0  0
   -1.1046    1.7395    0.6604 H   0  0  0  0  0  0  0  0  0  0  0  0
  1  2  1  0
  2  3  2  0
  3  4  1  0
  3  5  1  0
  5  6  1  0
  6  7  1  0
  7  8  2  0
  8  9  1  0
  9 10  2  0
 10 11  1  0
 10 12  1  0
 12 13  2  0
  6 14  1  0
 14 15  2  0
 14  2  1  0
 13  7  1  0
  1 16  1  0
  1 17  1  0
  1 18  1  0
  8 19  1  0
  9 20  1  0
 12 21  1  0
 13 22  1  0
M  END
$$$$
