
     RDKit          3D

 32 33  0  0  0  0  0  0  0  0999 V2000
    4.5588    1.6055   -0.6108 C   0  0  0  0  0  0  0  0  0  0  0  0
    3.2492    1.0800   -0.1024 C   0  0  0  0  0  0  0  0  0  0  0  0
    2.4552    0.2566   -0.9065 C   0  0  0  0  0  0  0  0  0  0  0  0
    1.2205   -0.2088   -0.4456 C   0  0  0  0  0  0  0  0  0  0  0  0
    0.7526    0.1390    0.8295 C   0  0  0  0  0  0  0  0  0  0  0  0
   -0.5944   -0.3109    1.3525 C   0  0  0  0  0  0  0  0  0  0  0  0
   -1.0781   -1.5669    0.7777 N   0  0  0  0  0  0  0  0  0  0  0  0
   -0.4474   -2.7797    1.2782 C   0  0  0  0  0  0  0  0  0  0  0  0
   -2.3707   -1.7038    0.2389 C   0  0  0  0  0  0  0  0  0  0  0  0
   -2.9413   -2.7961    0.2770 O   0  0  0  0  0  0  0  0  0  0  0  0
   -2.9947   -0.5469   -0.3854 C   0  0  0  0  0  0  0  0  0  0  0  0
   -2.5071    0.5271   -1.1126 C   0  0  0  0  0  0  0  0  0  0  0  0
   -3.6215    1.3176   -1.4859 C   0  0  0  0  0  0  0  0  0  0  0  0
   -4.7267    0.6765   -0.9835 C   0  0  0  0  0  0  0  0  0  0  0  0
   -4.3626   -0.4519   -0.3259 O   0  0  0  0  0  0  0  0  0  0  0  0
    1.5419    0.9877    1.6200 C   0  0  0  0  0  0  0  0  0  0  0  0
    2.7762    1.4536    1.1590 C   0  0  0  0  0  0  0  0  0  0  0  0
    5.2605    1.7695    0.2137 H   0  0  0  0  0  0  0  0  0  0  0  0
    5.0261    0.8915   -1.2972 H   0  0  0  0  0  0  0  0  0  0  0  0
    4.4032    2.5523   -1.1369 H   0  0  0  0  0  0  0  0  0  0  0  0
    2.7929   -0.0307   -1.9000 H   0  0  0  0  0  0  0  0  0  0  0  0
    0.6307   -0.8517   -1.0954 H   0  0  0  0  0  0  0  0  0  0  0  0
   -1.3128    0.5010    1.2161 H   0  0  0  0  0  0  0  0  0  0  0  0
   -0.5300   -0.4718    2.4369 H   0  0  0  0  0  0  0  0  0  0  0  0
   -0.8112   -2.9749    2.2917 H   0  0  0  0  0  0  0  0  0  0  0  0
   -0.6938   -3.6348    0.6414 H   0  0  0  0  0  0  0  0  0  0  0  0
    0.6393   -2.6616    1.2931 H   0  0  0  0  0  0  0  0  0  0  0  0
   -1.4718    0.7135   -1.3588 H   0  0  0  0  0  0  0  0  0  0  0  0
   -3.6203    2.2325   -2.0615 H   0  0  0  0  0  0  0  0  0  0  0  0
   -5.7887    0.8775   -1.0112 H   0  0  0  0  0  0  0  0  0  0  0  0
    1.1996    1.2969    2.6057 H   0  0  0  0  0  0  0  0  0  0  0  0
    3.3661    2.1123    1.7928 H   0  0  0  0  0  0  0  0  0  0  0  0
  1  2  1  0
  2  3  2  0
  3  4  1  0
  4  5  2  0
  5  6  1  0
  6  7  1  0
  7  8  1  0
  7  9  1  0
  9 10  2  0
  9 11  1  0
 11 12  2  0
 12 13  1  0
 13 14  2  0
 14 15  1  0
  5 16  1  0
 16 17  2  0
 17  2  1  0
 15 11  1  0
  1 18  1  0
  1 19  1  0
  1 20  1  0
  3 21  1  0
  4 22  1  0
  6 23  1  0
  6 24  1  0
  8 25  1  0
  8 26  1  0
  8 27  1  0
 12 28  1  0
 13 29  1  0
 14 30  1  0
 16 31  1  0
 17 32  1  0
M  END
$$$$
