
     RDKit          3D

 39 41  0  0  0  0  0  0  0  0999 V2000
    6.0976    0.8191   -1.4497 C   0  0  0  0  0  0  0  0  0  0  0  0
    4.9113    0.6847   -0.5118 C   0  0  0  0  0  0  0  0  0  0  0  0
    3.7731    0.3224   -1.2917 O   0  0  0  0  0  0  0  0  0  0  0  0
    2.6015    0.1096   -0.6194 C   0  0  0  0  0  0  0  0  0  0  0  0
    1.5393   -0.3152   -1.4193 C   0  0  0  0  0  0  0  0  0  0  0  0
    0.2821   -0.5671   -0.8646 C   0  0  0  0  0  0  0  0  0  0  0  0
    0.0658   -0.4013    0.5128 C   0  0  0  0  0  0  0  0  0  0  0  0
   -1.3067   -0.6245    1.1473 C   0  0  0  0  0  0  0  0  0  0  0  0
   -2.2941    0.4607    0.7369 C   0  0  0  0  0  0  0  0  0  0  0  0
   -1.9396    1.8090    1.2229 C   0  0  0  0  0  0  0  0  0  0  0  0
   -1.8094    2.7576    0.2585 N   0  0  0  0  0  0  0  0  0  0  0  0
   -1.7095    2.0310    2.4026 O   0  0  0  0  0  0  0  0  0  0  0  0
   -3.4233    0.1824    0.0413 C   0  0  0  0  0  0  0  0  0  0  0  0
   -4.4789    1.1957   -0.3207 C   0  0  0  0  0  0  0  0  0  0  0  0
   -3.6924   -1.1304   -0.3343 N   0  0  0  0  0  0  0  0  0  0  0  0
   -2.9608   -2.1801    0.0885 C   0  0  0  0  0  0  0  0  0  0  0  0
   -3.1494   -3.4681   -0.0435 N   0  0  0  0  0  0  0  0  0  0  0  0
   -2.0985   -4.0011    0.6583 C   0  0  0  0  0  0  0  0  0  0  0  0
   -1.2655   -3.1187    1.2220 N   0  0  0  0  0  0  0  0  0  0  0  0
   -1.8198   -1.9577    0.8127 N   0  0  0  0  0  0  0  0  0  0  0  0
    1.1374    0.0342    1.3087 C   0  0  0  0  0  0  0  0  0  0  0  0
    2.3950    0.2852    0.7477 C   0  0  0  0  0  0  0  0  0  0  0  0
    6.2814   -0.1233   -1.9763 H   0  0  0  0  0  0  0  0  0  0  0  0
    7.0003    1.0981   -0.8991 H   0  0  0  0  0  0  0  0  0  0  0  0
    5.9007    1.5781   -2.2141 H   0  0  0  0  0  0  0  0  0  0  0  0
    5.1286   -0.0920    0.2306 H   0  0  0  0  0  0  0  0  0  0  0  0
    4.7393    1.6455   -0.0133 H   0  0  0  0  0  0  0  0  0  0  0  0
    1.6948   -0.4566   -2.4864 H   0  0  0  0  0  0  0  0  0  0  0  0
   -0.5197   -0.8999   -1.5210 H   0  0  0  0  0  0  0  0  0  0  0  0
   -1.2204   -0.6367    2.2425 H   0  0  0  0  0  0  0  0  0  0  0  0
   -1.7889    2.5268   -0.7255 H   0  0  0  0  0  0  0  0  0  0  0  0
   -1.4403    3.6559    0.5430 H   0  0  0  0  0  0  0  0  0  0  0  0
   -4.4138    1.4413   -1.3855 H   0  0  0  0  0  0  0  0  0  0  0  0
   -5.4780    0.7907   -0.1235 H   0  0  0  0  0  0  0  0  0  0  0  0
   -4.4019    2.1217    0.2552 H   0  0  0  0  0  0  0  0  0  0  0  0
   -4.5848   -1.3181   -0.7838 H   0  0  0  0  0  0  0  0  0  0  0  0
   -1.9412   -5.0669    0.7650 H   0  0  0  0  0  0  0  0  0  0  0  0
    1.0006    0.1886    2.3785 H   0  0  0  0  0  0  0  0  0  0  0  0
    3.1879    0.6194    1.4085 H   0  0  0  0  0  0  0  0  0  0  0  0
  1  2  1  0
  2  3  1  0
  3  4  1  0
  4  5  2  0
  5  6  1  0
  6  7  2  0
  7  8  1  0
  8  9  1  0
  9 10  1  0
 10 11  1  0
 10 12  2  0
  9 13  2  0
 13 14  1  0
 13 15  1  0
 15 16  1  0
 16 17  2  0
 17 18  1  0
 18 19  2  0
 19 20  1  0
  7 21  1  0
 21 22  2  0
 22  4  1  0
 20  8  1  0
 20 16  1  0
  1 23  1  0
  1 24  1  0
  1 25  1  0
  2 26  1  0
  2 27  1  0
  5 28  1  0
  6 29  1  0
  8 30  1  0
 11 31  1  0
 11 32  1  0
 14 33  1  0
 14 34  1  0
 14 35  1  0
 15 36  1  0
 18 37  1  0
 21 38  1  0
 22 39  1  0
M  END
$$$$
