
     RDKit          3D

 46 47  0  0  0  0  0  0  0  0999 V2000
    0.1443   -3.4413   -2.8710 C   0  0  0  0  0  0  0  0  0  0  0  0
   -0.4834   -2.0567   -2.7689 C   0  0  0  0  0  0  0  0  0  0  0  0
   -0.6275   -1.5672   -1.3185 C   0  0  0  0  0  0  0  0  0  0  0  0
   -1.3802   -0.3382   -1.3718 O   0  0  0  0  0  0  0  0  0  0  0  0
   -2.1260   -0.1660   -0.2335 C   0  0  0  0  0  0  0  0  0  0  0  0
   -1.6088    0.6689    0.7614 C   0  0  0  0  0  0  0  0  0  0  0  0
   -2.3131    0.8680    1.9529 C   0  0  0  0  0  0  0  0  0  0  0  0
   -1.7360    1.7501    3.0225 C   0  0  0  0  0  0  0  0  0  0  0  0
   -3.5378    0.2084    2.1330 C   0  0  0  0  0  0  0  0  0  0  0  0
   -4.0744   -0.5873    1.1170 C   0  0  0  0  0  0  0  0  0  0  0  0
   -3.3885   -0.7606   -0.0930 C   0  0  0  0  0  0  0  0  0  0  0  0
   -3.9982   -1.6129   -1.1686 C   0  0  0  0  0  0  0  0  0  0  0  0
    0.7588   -1.3168   -0.6964 C   0  0  0  0  0  0  0  0  0  0  0  0
    1.2677   -2.0836    0.1190 O   0  0  0  0  0  0  0  0  0  0  0  0
    1.4048   -0.1941   -1.1759 N   0  0  0  0  0  0  0  0  0  0  0  0
    2.6737    0.2341   -0.6171 C   0  0  0  0  0  0  0  0  0  0  0  0
    2.5047    0.9532    0.7311 C   0  0  0  0  0  0  0  0  0  0  0  0
    3.8372    1.2447    1.4072 C   0  0  0  0  0  0  0  0  0  0  0  0
    4.2066    2.5937    0.8428 C   0  0  0  0  0  0  0  0  0  0  0  0
    2.8562    3.2737    0.7306 C   0  0  0  0  0  0  0  0  0  0  0  0
    1.8870    2.2402    0.4914 O   0  0  0  0  0  0  0  0  0  0  0  0
    1.1631   -3.4509   -2.4701 H   0  0  0  0  0  0  0  0  0  0  0  0
    0.1936   -3.7512   -3.9211 H   0  0  0  0  0  0  0  0  0  0  0  0
   -0.4479   -4.1854   -2.3247 H   0  0  0  0  0  0  0  0  0  0  0  0
    0.1090   -1.3409   -3.3575 H   0  0  0  0  0  0  0  0  0  0  0  0
   -1.4721   -2.0792   -3.2464 H   0  0  0  0  0  0  0  0  0  0  0  0
   -1.1420   -2.3330   -0.7190 H   0  0  0  0  0  0  0  0  0  0  0  0
   -0.6493    1.1599    0.6138 H   0  0  0  0  0  0  0  0  0  0  0  0
   -0.8673    1.2681    3.4821 H   0  0  0  0  0  0  0  0  0  0  0  0
   -1.4304    2.7093    2.5973 H   0  0  0  0  0  0  0  0  0  0  0  0
   -2.4719    1.9576    3.8056 H   0  0  0  0  0  0  0  0  0  0  0  0
   -4.0908    0.3215    3.0626 H   0  0  0  0  0  0  0  0  0  0  0  0
   -5.0345   -1.0820    1.2823 H   0  0  0  0  0  0  0  0  0  0  0  0
   -5.0865   -1.4828   -1.1950 H   0  0  0  0  0  0  0  0  0  0  0  0
   -3.6304   -1.3298   -2.1579 H   0  0  0  0  0  0  0  0  0  0  0  0
   -3.7659   -2.6668   -0.9925 H   0  0  0  0  0  0  0  0  0  0  0  0
    0.8095    0.5151   -1.5908 H   0  0  0  0  0  0  0  0  0  0  0  0
    3.3151   -0.6471   -0.5064 H   0  0  0  0  0  0  0  0  0  0  0  0
    3.1211    0.9011   -1.3593 H   0  0  0  0  0  0  0  0  0  0  0  0
    1.8507    0.3787    1.3950 H   0  0  0  0  0  0  0  0  0  0  0  0
    3.6865    1.3383    2.4886 H   0  0  0  0  0  0  0  0  0  0  0  0
    4.5986    0.4786    1.2378 H   0  0  0  0  0  0  0  0  0  0  0  0
    4.6516    2.4758   -0.1563 H   0  0  0  0  0  0  0  0  0  0  0  0
    4.9172    3.1467    1.4624 H   0  0  0  0  0  0  0  0  0  0  0  0
    2.8242    4.0040   -0.0883 H   0  0  0  0  0  0  0  0  0  0  0  0
    2.5819    3.7840    1.6636 H   0  0  0  0  0  0  0  0  0  0  0  0
  1  2  1  0
  2  3  1  0
  3  4  1  0
  4  5  1  0
  5  6  2  0
  6  7  1  0
  7  8  1  0
  7  9  2  0
  9 10  1  0
 10 11  2  0
 11 12  1  0
  3 13  1  0
 13 14  2  0
 13 15  1  0
 15 16  1  0
 16 17  1  0
 17 18  1  0
 18 19  1  0
 19 20  1  0
 20 21  1  0
 11  5  1  0
 21 17  1  0
  1 22  1  0
  1 23  1  0
  1 24  1  0
  2 25  1  0
  2 26  1  0
  3 27  1  0
  6 28  1  0
  8 29  1  0
  8 30  1  0
  8 31  1  0
  9 32  1  0
 10 33  1  0
 12 34  1  0
 12 35  1  0
 12 36  1  0
 15 37  1  0
 16 38  1  0
 16 39  1  0
 17 40  1  0
 18 41  1  0
 18 42  1  0
 19 43  1  0
 19 44  1  0
 20 45  1  0
 20 46  1  0
M  END
$$$$
