
     RDKit          3D

 51 54  0  0  0  0  0  0  0  0999 V2000
   -8.7311    0.2740   -0.1512 C   0  0  0  0  0  0  0  0  0  0  0  0
   -7.2959    0.4118    0.1954 C   0  0  0  0  0  0  0  0  0  0  0  0
   -6.6749    1.4450    0.9119 C   0  0  0  0  0  0  0  0  0  0  0  0
   -5.3378    1.1028    0.9845 C   0  0  0  0  0  0  0  0  0  0  0  0
   -4.2778    1.8235    1.7321 C   0  0  0  0  0  0  0  0  0  0  0  0
   -5.1990   -0.0874    0.2632 N   0  0  0  0  0  0  0  0  0  0  0  0
   -4.0374   -0.8731   -0.0739 C   0  0  0  0  0  0  0  0  0  0  0  0
   -2.7556   -0.3815    0.0811 C   0  0  0  0  0  0  0  0  0  0  0  0
   -1.6925   -1.2044   -0.2682 C   0  0  0  0  0  0  0  0  0  0  0  0
   -0.3753   -0.7583   -0.1146 N   0  0  0  0  0  0  0  0  0  0  0  0
   -0.0645    0.6004   -0.6082 C   0  0  0  0  0  0  0  0  0  0  0  0
    1.3101    0.6897   -1.2987 C   0  0  0  0  0  0  0  0  0  0  0  0
    2.3802    0.0538   -0.5270 N   0  0  0  0  0  0  0  0  0  0  0  0
    3.6646    0.5803   -0.6181 C   0  0  0  0  0  0  0  0  0  0  0  0
    3.9115    1.5233   -1.3653 O   0  0  0  0  0  0  0  0  0  0  0  0
    4.5861   -0.0369    0.1994 N   0  0  0  0  0  0  0  0  0  0  0  0
    5.9782    0.1839    0.2483 C   0  0  0  0  0  0  0  0  0  0  0  0
    6.6858   -0.4223    1.2978 C   0  0  0  0  0  0  0  0  0  0  0  0
    8.0690   -0.2583    1.4110 C   0  0  0  0  0  0  0  0  0  0  0  0
    8.7462    0.5068    0.4709 C   0  0  0  0  0  0  0  0  0  0  0  0
   10.0716    0.6646    0.5784 F   0  0  0  0  0  0  0  0  0  0  0  0
    8.0659    1.1066   -0.5801 C   0  0  0  0  0  0  0  0  0  0  0  0
    6.6812    0.9430   -0.6931 C   0  0  0  0  0  0  0  0  0  0  0  0
    2.0385   -1.2315    0.0988 C   0  0  0  0  0  0  0  0  0  0  0  0
    0.6642   -1.7784   -0.3291 C   0  0  0  0  0  0  0  0  0  0  0  0
   -1.9055   -2.4502   -0.7204 N   0  0  0  0  0  0  0  0  0  0  0  0
   -3.1766   -2.8407   -0.8629 C   0  0  0  0  0  0  0  0  0  0  0  0
   -4.2541   -2.1126   -0.5735 N   0  0  0  0  0  0  0  0  0  0  0  0
   -6.4214   -0.5222   -0.1689 N   0  0  0  0  0  0  0  0  0  0  0  0
   -8.9948   -0.7690   -0.3596 H   0  0  0  0  0  0  0  0  0  0  0  0
   -9.3649    0.6222    0.6731 H   0  0  0  0  0  0  0  0  0  0  0  0
   -8.9637    0.8710   -1.0404 H   0  0  0  0  0  0  0  0  0  0  0  0
   -7.1434    2.3150    1.3518 H   0  0  0  0  0  0  0  0  0  0  0  0
   -4.7224    2.5440    2.4288 H   0  0  0  0  0  0  0  0  0  0  0  0
   -3.6732    1.1390    2.3347 H   0  0  0  0  0  0  0  0  0  0  0  0
   -3.6370    2.3921    1.0517 H   0  0  0  0  0  0  0  0  0  0  0  0
   -2.5450    0.6077    0.4456 H   0  0  0  0  0  0  0  0  0  0  0  0
   -0.8184    0.9586   -1.3209 H   0  0  0  0  0  0  0  0  0  0  0  0
   -0.0737    1.2777    0.2545 H   0  0  0  0  0  0  0  0  0  0  0  0
    1.2761    0.1804   -2.2705 H   0  0  0  0  0  0  0  0  0  0  0  0
    1.5467    1.7415   -1.4935 H   0  0  0  0  0  0  0  0  0  0  0  0
    4.2022   -0.5818    0.9547 H   0  0  0  0  0  0  0  0  0  0  0  0
    6.1725   -1.0261    2.0415 H   0  0  0  0  0  0  0  0  0  0  0  0
    8.6194   -0.7212    2.2239 H   0  0  0  0  0  0  0  0  0  0  0  0
    8.6112    1.6979   -1.3086 H   0  0  0  0  0  0  0  0  0  0  0  0
    6.1813    1.4162   -1.5330 H   0  0  0  0  0  0  0  0  0  0  0  0
    2.8175   -1.9648   -0.1370 H   0  0  0  0  0  0  0  0  0  0  0  0
    2.0460   -1.0646    1.1827 H   0  0  0  0  0  0  0  0  0  0  0  0
    0.4597   -2.6760    0.2688 H   0  0  0  0  0  0  0  0  0  0  0  0
    0.6965   -2.0715   -1.3875 H   0  0  0  0  0  0  0  0  0  0  0  0
   -3.3463   -3.8398   -1.2480 H   0  0  0  0  0  0  0  0  0  0  0  0
  1  2  1  0
  2  3  1  0
  3  4  2  0
  4  5  1  0
  4  6  1  0
  6  7  1  0
  7  8  2  0
  8  9  1  0
  9 10  1  0
 10 11  1  0
 11 12  1  0
 12 13  1  0
 13 14  1  0
 14 15  2  0
 14 16  1  0
 16 17  1  0
 17 18  2  0
 18 19  1  0
 19 20  2  0
 20 21  1  0
 20 22  1  0
 22 23  2  0
 13 24  1  0
 24 25  1  0
  9 26  2  0
 26 27  1  0
 27 28  2  0
  6 29  1  0
 29  2  2  0
 28  7  1  0
 25 10  1  0
 23 17  1  0
  1 30  1  0
  1 31  1  0
  1 32  1  0
  3 33  1  0
  5 34  1  0
  5 35  1  0
  5 36  1  0
  8 37  1  0
 11 38  1  0
 11 39  1  0
 12 40  1  0
 12 41  1  0
 16 42  1  0
 18 43  1  0
 19 44  1  0
 22 45  1  0
 23 46  1  0
 24 47  1  0
 24 48  1  0
 25 49  1  0
 25 50  1  0
 27 51  1  0
M  END
$$$$
