
     RDKit          3D

 51 53  0  0  0  0  0  0  0  0999 V2000
    9.1087   -1.2760    0.4032 C   0  0  0  0  0  0  0  0  0  0  0  0
    7.6165   -1.5242    0.2741 C   0  0  0  0  0  0  0  0  0  0  0  0
    6.9862   -0.2769   -0.0107 O   0  0  0  0  0  0  0  0  0  0  0  0
    5.6286   -0.2858   -0.1666 C   0  0  0  0  0  0  0  0  0  0  0  0
    4.7967   -1.3984   -0.0717 C   0  0  0  0  0  0  0  0  0  0  0  0
    3.4144   -1.2603   -0.2555 C   0  0  0  0  0  0  0  0  0  0  0  0
    2.8448   -0.0119   -0.5362 C   0  0  0  0  0  0  0  0  0  0  0  0
    1.4450    0.0330   -0.7033 N   0  0  0  0  0  0  0  0  0  0  0  0
    0.6633    1.1406   -0.9969 C   0  0  0  0  0  0  0  0  0  0  0  0
    1.0631    2.2891   -1.1530 O   0  0  0  0  0  0  0  0  0  0  0  0
   -0.8250    0.8001   -1.0436 C   0  0  0  0  0  0  0  0  0  0  0  0
   -1.6368    1.7979   -1.8899 C   0  0  0  0  0  0  0  0  0  0  0  0
   -2.6380    2.5864   -1.0498 C   0  0  0  0  0  0  0  0  0  0  0  0
   -3.5535    1.6467   -0.2684 C   0  0  0  0  0  0  0  0  0  0  0  0
   -2.7988    0.5893    0.4653 N   0  0  0  0  0  0  0  0  0  0  0  0
   -3.3655   -1.0111    0.2788 S   0  0  0  0  0  6  0  0  0  0  0  0
   -2.5907   -1.8686    1.1505 O   0  0  0  0  0  0  0  0  0  0  0  0
   -3.4393   -1.2752   -1.1434 O   0  0  0  0  0  0  0  0  0  0  0  0
   -5.0097   -0.9208    0.9354 C   0  0  0  0  0  0  0  0  0  0  0  0
   -5.1799   -0.6511    2.2968 C   0  0  0  0  0  0  0  0  0  0  0  0
   -6.4683   -0.5771    2.8244 C   0  0  0  0  0  0  0  0  0  0  0  0
   -7.5743   -0.7763    1.9957 C   0  0  0  0  0  0  0  0  0  0  0  0
   -7.3974   -1.0529    0.6382 C   0  0  0  0  0  0  0  0  0  0  0  0
   -6.1119   -1.1286    0.1021 C   0  0  0  0  0  0  0  0  0  0  0  0
   -1.3216    0.7403    0.4021 C   0  0  0  0  0  0  0  0  0  0  0  0
    3.6819    1.0981   -0.6295 C   0  0  0  0  0  0  0  0  0  0  0  0
    5.0630    0.9587   -0.4458 C   0  0  0  0  0  0  0  0  0  0  0  0
    9.6411   -2.2058    0.6227 H   0  0  0  0  0  0  0  0  0  0  0  0
    9.5099   -0.8486   -0.5218 H   0  0  0  0  0  0  0  0  0  0  0  0
    9.3120   -0.5550    1.2019 H   0  0  0  0  0  0  0  0  0  0  0  0
    7.4414   -2.2343   -0.5424 H   0  0  0  0  0  0  0  0  0  0  0  0
    7.2393   -1.9344    1.2179 H   0  0  0  0  0  0  0  0  0  0  0  0
    5.1861   -2.3876    0.1438 H   0  0  0  0  0  0  0  0  0  0  0  0
    2.7932   -2.1490   -0.1737 H   0  0  0  0  0  0  0  0  0  0  0  0
    0.9691   -0.8583   -0.6209 H   0  0  0  0  0  0  0  0  0  0  0  0
   -0.9243   -0.1859   -1.5163 H   0  0  0  0  0  0  0  0  0  0  0  0
   -2.1951    1.2333   -2.6487 H   0  0  0  0  0  0  0  0  0  0  0  0
   -0.9976    2.4900   -2.4487 H   0  0  0  0  0  0  0  0  0  0  0  0
   -2.1018    3.2525   -0.3627 H   0  0  0  0  0  0  0  0  0  0  0  0
   -3.2428    3.2307   -1.6982 H   0  0  0  0  0  0  0  0  0  0  0  0
   -4.2697    1.2011   -0.9672 H   0  0  0  0  0  0  0  0  0  0  0  0
   -4.1346    2.2202    0.4622 H   0  0  0  0  0  0  0  0  0  0  0  0
   -4.3172   -0.5010    2.9422 H   0  0  0  0  0  0  0  0  0  0  0  0
   -6.6122   -0.3684    3.8819 H   0  0  0  0  0  0  0  0  0  0  0  0
   -8.5782   -0.7211    2.4105 H   0  0  0  0  0  0  0  0  0  0  0  0
   -8.2633   -1.2136    0.0001 H   0  0  0  0  0  0  0  0  0  0  0  0
   -5.9804   -1.3503   -0.9544 H   0  0  0  0  0  0  0  0  0  0  0  0
   -1.0452    1.6471    0.9570 H   0  0  0  0  0  0  0  0  0  0  0  0
   -0.8328   -0.0729    0.9512 H   0  0  0  0  0  0  0  0  0  0  0  0
    3.3000    2.0906   -0.8445 H   0  0  0  0  0  0  0  0  0  0  0  0
    5.7017    1.8356   -0.5227 H   0  0  0  0  0  0  0  0  0  0  0  0
  1  2  1  0
  2  3  1  0
  3  4  1  0
  4  5  2  0
  5  6  1  0
  6  7  2  0
  7  8  1  0
  8  9  1  0
  9 10  2  0
  9 11  1  0
 11 12  1  0
 12 13  1  0
 13 14  1  0
 14 15  1  0
 15 16  1  0
 16 17  2  0
 16 18  2  0
 16 19  1  0
 19 20  2  0
 20 21  1  0
 21 22  2  0
 22 23  1  0
 23 24  2  0
 15 25  1  0
  7 26  1  0
 26 27  2  0
 27  4  1  0
 25 11  1  0
 24 19  1  0
  1 28  1  0
  1 29  1  0
  1 30  1  0
  2 31  1  0
  2 32  1  0
  5 33  1  0
  6 34  1  0
  8 35  1  0
 11 36  1  0
 12 37  1  0
 12 38  1  0
 13 39  1  0
 13 40  1  0
 14 41  1  0
 14 42  1  0
 20 43  1  0
 21 44  1  0
 22 45  1  0
 23 46  1  0
 24 47  1  0
 25 48  1  0
 25 49  1  0
 26 50  1  0
 27 51  1  0
M  END
$$$$
