
     RDKit          3D

 43 43  0  0  0  0  0  0  0  0999 V2000
   -4.3915    1.3563   -1.9439 C   0  0  0  0  0  0  0  0  0  0  0  0
   -3.7180    1.1410   -0.6726 N   0  0  0  0  0  0  0  0  0  0  0  0
   -3.6553   -0.2874   -0.3340 C   0  0  0  0  0  0  0  0  0  0  0  0
   -3.0289   -0.5341    1.0508 C   0  0  0  0  0  0  0  0  0  0  0  0
   -1.6484   -0.1727    1.1010 O   0  0  0  0  0  0  0  0  0  0  0  0
   -0.7070   -1.0782    0.7002 C   0  0  0  0  0  0  0  0  0  0  0  0
   -0.9479   -2.3550    0.1896 C   0  0  0  0  0  0  0  0  0  0  0  0
    0.1199   -3.1833   -0.1728 C   0  0  0  0  0  0  0  0  0  0  0  0
    1.4324   -2.7359   -0.0353 C   0  0  0  0  0  0  0  0  0  0  0  0
    1.6769   -1.4531    0.4492 C   0  0  0  0  0  0  0  0  0  0  0  0
    2.9944   -1.0818    0.5921 O   0  0  0  0  0  0  0  0  0  0  0  0
    3.3535    0.1745    0.1588 C   0  0  0  0  0  0  0  0  0  0  0  0
    4.2111    0.9036    0.9835 C   0  0  0  0  0  0  0  0  0  0  0  0
    4.6444    2.1706    0.5912 C   0  0  0  0  0  0  0  0  0  0  0  0
    4.2316    2.7006   -0.6316 C   0  0  0  0  0  0  0  0  0  0  0  0
    3.3919    1.9620   -1.4663 C   0  0  0  0  0  0  0  0  0  0  0  0
    2.9581    0.6940   -1.0766 C   0  0  0  0  0  0  0  0  0  0  0  0
    0.6121   -0.6342    0.8340 C   0  0  0  0  0  0  0  0  0  0  0  0
   -1.1198    0.1486    1.3808 O   0  0  0  0  0  0  0  0  0  0  0  0
   -0.7441    0.0250    0.2316 C   0  0  0  0  0  0  0  0  0  0  0  0
   -1.6073   -0.0845   -0.7879 O   0  0  0  0  0  0  0  0  0  0  0  0
    0.7441   -0.0250   -0.2316 C   0  0  0  0  0  0  0  0  0  0  0  0
    1.1198   -0.1485   -1.3808 O   0  0  0  0  0  0  0  0  0  0  0  0
    1.6073    0.0844    0.7879 O   0  0  0  0  0  0  0  0  0  0  0  0
   -3.8687    0.8480   -2.7605 H   0  0  0  0  0  0  0  0  0  0  0  0
   -5.4294    1.0093   -1.9121 H   0  0  0  0  0  0  0  0  0  0  0  0
   -4.4013    2.4259   -2.1753 H   0  0  0  0  0  0  0  0  0  0  0  0
   -4.1938    1.6569    0.0660 H   0  0  0  0  0  0  0  0  0  0  0  0
   -3.0744   -0.8083   -1.1023 H   0  0  0  0  0  0  0  0  0  0  0  0
   -4.6689   -0.7055   -0.3269 H   0  0  0  0  0  0  0  0  0  0  0  0
   -3.1889   -1.5658    1.3848 H   0  0  0  0  0  0  0  0  0  0  0  0
   -3.5427    0.0904    1.7922 H   0  0  0  0  0  0  0  0  0  0  0  0
   -1.9519   -2.7421    0.0594 H   0  0  0  0  0  0  0  0  0  0  0  0
   -0.0739   -4.1798   -0.5615 H   0  0  0  0  0  0  0  0  0  0  0  0
    2.2620   -3.3809   -0.3107 H   0  0  0  0  0  0  0  0  0  0  0  0
    4.5357    0.4870    1.9328 H   0  0  0  0  0  0  0  0  0  0  0  0
    5.3046    2.7428    1.2374 H   0  0  0  0  0  0  0  0  0  0  0  0
    4.5685    3.6879   -0.9371 H   0  0  0  0  0  0  0  0  0  0  0  0
    3.0772    2.3721   -2.4223 H   0  0  0  0  0  0  0  0  0  0  0  0
    2.3169    0.1204   -1.7399 H   0  0  0  0  0  0  0  0  0  0  0  0
    0.7998    0.3548    1.2436 H   0  0  0  0  0  0  0  0  0  0  0  0
   -2.4900   -0.0392   -0.3676 H   0  0  0  0  0  0  0  0  0  0  0  0
    2.4900    0.0392    0.3676 H   0  0  0  0  0  0  0  0  0  0  0  0
  1  2  1  0
  2  3  1  0
  3  4  1  0
  4  5  1  0
  5  6  1  0
  6  7  2  0
  7  8  1  0
  8  9  2  0
  9 10  1  0
 10 11  1  0
 11 12  1  0
 12 13  2  0
 13 14  1  0
 14 15  2  0
 15 16  1  0
 16 17  2  0
 10 18  2  0
 19 20  2  0
 20 21  1  0
 20 22  1  0
 22 23  2  0
 22 24  1  0
 18  6  1  0
 17 12  1  0
  1 25  1  0
  1 26  1  0
  1 27  1  0
  2 28  1  0
  3 29  1  0
  3 30  1  0
  4 31  1  0
  4 32  1  0
  7 33  1  0
  8 34  1  0
  9 35  1  0
 13 36  1  0
 14 37  1  0
 15 38  1  0
 16 39  1  0
 17 40  1  0
 18 41  1  0
 21 42  1  0
 24 43  1  0
M  END
$$$$
