
     RDKit          3D

 43 45  0  0  0  0  0  0  0  0999 V2000
    6.6878    3.9367    1.0800 N   0  0  0  0  0  0  0  0  0  0  0  0
    6.2854    2.9780    0.5648 C   0  0  0  0  0  0  0  0  0  0  0  0
    5.7777    1.7954   -0.0663 C   0  0  0  0  0  0  0  0  0  0  0  0
    6.5144    1.1665   -1.0717 C   0  0  0  0  0  0  0  0  0  0  0  0
    6.0115    0.0189   -1.6810 C   0  0  0  0  0  0  0  0  0  0  0  0
    4.7749   -0.5033   -1.2877 C   0  0  0  0  0  0  0  0  0  0  0  0
    4.0295    0.1135   -0.2807 C   0  0  0  0  0  0  0  0  0  0  0  0
    2.7729   -0.3495    0.1661 N   0  0  0  0  0  0  0  0  0  0  0  0
    2.1181   -1.5015   -0.2314 C   0  0  0  0  0  0  0  0  0  0  0  0
    2.5336   -2.3637   -0.9944 O   0  0  0  0  0  0  0  0  0  0  0  0
    0.7744   -1.6988    0.3787 C   0  0  0  0  0  0  0  0  0  0  0  0
    0.3850   -2.9960    0.7384 C   0  0  0  0  0  0  0  0  0  0  0  0
   -0.8612   -3.2206    1.3280 C   0  0  0  0  0  0  0  0  0  0  0  0
   -1.7333   -2.1543    1.5438 C   0  0  0  0  0  0  0  0  0  0  0  0
   -1.3594   -0.8691    1.1410 C   0  0  0  0  0  0  0  0  0  0  0  0
   -2.4610    0.4988    1.4140 S   0  0  0  0  0  6  0  0  0  0  0  0
   -3.4169    0.0980    2.4260 O   0  0  0  0  0  0  0  0  0  0  0  0
   -1.6242    1.6682    1.6024 O   0  0  0  0  0  0  0  0  0  0  0  0
   -3.3222    0.6918   -0.1235 C   0  0  0  0  0  0  0  0  0  0  0  0
   -4.3020    1.8700   -0.0742 C   0  0  0  0  0  0  0  0  0  0  0  0
   -5.1054    1.8054   -1.3650 C   0  0  0  0  0  0  0  0  0  0  0  0
   -5.3047    0.0639   -1.7052 S   0  0  0  0  0  6  0  0  0  0  0  0
   -4.7466   -0.2133   -3.0115 O   0  0  0  0  0  0  0  0  0  0  0  0
   -6.6372   -0.3465   -1.3215 O   0  0  0  0  0  0  0  0  0  0  0  0
   -4.1559   -0.5276   -0.4824 C   0  0  0  0  0  0  0  0  0  0  0  0
   -0.1058   -0.6281    0.5684 C   0  0  0  0  0  0  0  0  0  0  0  0
    4.5389    1.2696    0.3256 C   0  0  0  0  0  0  0  0  0  0  0  0
    7.4779    1.5626   -1.3866 H   0  0  0  0  0  0  0  0  0  0  0  0
    6.5789   -0.4762   -2.4662 H   0  0  0  0  0  0  0  0  0  0  0  0
    4.4211   -1.3966   -1.7944 H   0  0  0  0  0  0  0  0  0  0  0  0
    2.3456    0.1901    0.9090 H   0  0  0  0  0  0  0  0  0  0  0  0
    1.0609   -3.8339    0.5707 H   0  0  0  0  0  0  0  0  0  0  0  0
   -1.1459   -4.2285    1.6242 H   0  0  0  0  0  0  0  0  0  0  0  0
   -2.6934   -2.3382    2.0232 H   0  0  0  0  0  0  0  0  0  0  0  0
   -2.5681    0.8829   -0.8973 H   0  0  0  0  0  0  0  0  0  0  0  0
   -3.7878    2.8312    0.0263 H   0  0  0  0  0  0  0  0  0  0  0  0
   -4.9757    1.7707    0.7862 H   0  0  0  0  0  0  0  0  0  0  0  0
   -4.5493    2.2478   -2.1966 H   0  0  0  0  0  0  0  0  0  0  0  0
   -6.0840    2.2807   -1.2733 H   0  0  0  0  0  0  0  0  0  0  0  0
   -4.7369   -0.9062    0.3636 H   0  0  0  0  0  0  0  0  0  0  0  0
   -3.5602   -1.3380   -0.9088 H   0  0  0  0  0  0  0  0  0  0  0  0
    0.1712    0.3777    0.2613 H   0  0  0  0  0  0  0  0  0  0  0  0
    3.9770    1.7715    1.1110 H   0  0  0  0  0  0  0  0  0  0  0  0
  1  2  3  0
  2  3  1  0
  3  4  2  0
  4  5  1  0
  5  6  2  0
  6  7  1  0
  7  8  1  0
  8  9  1  0
  9 10  2  0
  9 11  1  0
 11 12  2  0
 12 13  1  0
 13 14  2  0
 14 15  1  0
 15 16  1  0
 16 17  2  0
 16 18  2  0
 16 19  1  0
 19 20  1  0
 20 21  1  0
 21 22  1  0
 22 23  2  0
 22 24  2  0
 22 25  1  0
 15 26  2  0
  7 27  2  0
 27  3  1  0
 26 11  1  0
 25 19  1  0
  4 28  1  0
  5 29  1  0
  6 30  1  0
  8 31  1  0
 12 32  1  0
 13 33  1  0
 14 34  1  0
 19 35  1  0
 20 36  1  0
 20 37  1  0
 21 38  1  0
 21 39  1  0
 25 40  1  0
 25 41  1  0
 26 42  1  0
 27 43  1  0
M  END
$$$$
