
     RDKit          3D

 33 35  0  0  0  0  0  0  0  0999 V2000
   -3.9014    3.3207    0.2832 C   0  0  0  0  0  0  0  0  0  0  0  0
   -3.2775    1.9586    0.2200 C   0  0  0  0  0  0  0  0  0  0  0  0
   -4.0743    0.8254    0.2390 C   0  0  0  0  0  0  0  0  0  0  0  0
   -3.4628   -0.4261    0.1789 C   0  0  0  0  0  0  0  0  0  0  0  0
   -4.3182   -1.6624    0.1988 C   0  0  0  0  0  0  0  0  0  0  0  0
   -2.0500   -0.4854    0.1009 C   0  0  0  0  0  0  0  0  0  0  0  0
   -1.3211   -1.6860    0.0355 C   0  0  0  0  0  0  0  0  0  0  0  0
    0.0661   -1.6584   -0.0392 C   0  0  0  0  0  0  0  0  0  0  0  0
    0.6934   -0.4290   -0.0469 C   0  0  0  0  0  0  0  0  0  0  0  0
    2.0730   -0.2548   -0.1180 N   0  0  0  0  0  0  0  0  0  0  0  0
    3.0658   -1.2020   -0.1923 C   0  0  0  0  0  0  0  0  0  0  0  0
    2.8836   -2.4157   -0.2085 O   0  0  0  0  0  0  0  0  0  0  0  0
    4.3951   -0.6209   -0.2520 C   0  0  0  0  0  0  0  0  0  0  0  0
    5.6431   -1.2102   -0.3324 C   0  0  0  0  0  0  0  0  0  0  0  0
    6.5906   -0.1592   -0.3613 C   0  0  0  0  0  0  0  0  0  0  0  0
    5.8684    1.0085   -0.2970 C   0  0  0  0  0  0  0  0  0  0  0  0
    4.5383    0.7437   -0.2304 O   0  0  0  0  0  0  0  0  0  0  0  0
    0.0122    0.7309    0.0150 N   0  0  0  0  0  0  0  0  0  0  0  0
   -1.3193    0.7188    0.0871 C   0  0  0  0  0  0  0  0  0  0  0  0
   -1.9297    1.9015    0.1456 N   0  0  0  0  0  0  0  0  0  0  0  0
   -4.5689    3.4707   -0.5711 H   0  0  0  0  0  0  0  0  0  0  0  0
   -4.4721    3.4325    1.2103 H   0  0  0  0  0  0  0  0  0  0  0  0
   -3.1353    4.1024    0.2583 H   0  0  0  0  0  0  0  0  0  0  0  0
   -5.1545    0.9202    0.2997 H   0  0  0  0  0  0  0  0  0  0  0  0
   -5.3832   -1.4139    0.2619 H   0  0  0  0  0  0  0  0  0  0  0  0
   -4.0739   -2.2806    1.0686 H   0  0  0  0  0  0  0  0  0  0  0  0
   -4.1709   -2.2423   -0.7180 H   0  0  0  0  0  0  0  0  0  0  0  0
   -1.8201   -2.6510    0.0419 H   0  0  0  0  0  0  0  0  0  0  0  0
    0.6099   -2.5935   -0.0888 H   0  0  0  0  0  0  0  0  0  0  0  0
    2.3569    0.7182   -0.1126 H   0  0  0  0  0  0  0  0  0  0  0  0
    5.8319   -2.2750   -0.3656 H   0  0  0  0  0  0  0  0  0  0  0  0
    7.6669   -0.2419   -0.4215 H   0  0  0  0  0  0  0  0  0  0  0  0
    6.1377    2.0560   -0.2891 H   0  0  0  0  0  0  0  0  0  0  0  0
  1  2  1  0
  2  3  2  0
  3  4  1  0
  4  5  1  0
  4  6  2  0
  6  7  1  0
  7  8  2  0
  8  9  1  0
  9 10  1  0
 10 11  1  0
 11 12  2  0
 11 13  1  0
 13 14  2  0
 14 15  1  0
 15 16  2  0
 16 17  1  0
  9 18  2  0
 18 19  1  0
 19 20  2  0
 20  2  1  0
 19  6  1  0
 17 13  1  0
  1 21  1  0
  1 22  1  0
  1 23  1  0
  3 24  1  0
  5 25  1  0
  5 26  1  0
  5 27  1  0
  7 28  1  0
  8 29  1  0
 10 30  1  0
 14 31  1  0
 15 32  1  0
 16 33  1  0
M  END
$$$$
