
     RDKit          3D

 42 44  0  0  0  0  0  0  0  0999 V2000
   -1.6924   -1.1278   -1.0505 O   0  0  0  0  0  0  0  0  0  0  0  0
   -1.8879   -1.0536    0.1588 C   0  0  0  0  0  0  0  0  0  0  0  0
   -2.9634   -1.6382    0.7819 N   0  0  0  0  0  0  0  0  0  0  0  0
   -4.0412   -2.2471    0.0352 C   0  0  0  0  0  0  0  0  0  0  0  0
   -5.1233   -1.2458   -0.1209 C   0  0  0  0  0  0  0  0  0  0  0  0
   -5.4046   -0.3006   -1.0859 C   0  0  0  0  0  0  0  0  0  0  0  0
   -6.5794    0.3649   -0.6621 C   0  0  0  0  0  0  0  0  0  0  0  0
   -6.9373   -0.2126    0.5334 C   0  0  0  0  0  0  0  0  0  0  0  0
   -6.0575   -1.1899    0.8731 O   0  0  0  0  0  0  0  0  0  0  0  0
   -0.9243   -0.2990    1.0070 C   0  0  0  0  0  0  0  0  0  0  0  0
    0.0952    0.4234    0.3660 C   0  0  0  0  0  0  0  0  0  0  0  0
    1.0455    1.1148    1.1255 C   0  0  0  0  0  0  0  0  0  0  0  0
    2.3180    2.0483    0.3041 S   0  0  0  0  0  6  0  0  0  0  0  0
    2.7563    3.0703    1.2344 O   0  0  0  0  0  0  0  0  0  0  0  0
    1.8207    2.4057   -1.0083 O   0  0  0  0  0  0  0  0  0  0  0  0
    3.6554    0.9023    0.1051 C   0  0  0  0  0  0  0  0  0  0  0  0
    3.3516   -0.2487   -0.8567 C   0  0  0  0  0  0  0  0  0  0  0  0
    4.6739   -0.9698   -1.0835 C   0  0  0  0  0  0  0  0  0  0  0  0
    5.9228    0.3054   -1.0507 S   0  0  0  0  0  6  0  0  0  0  0  0
    6.3324    0.5990   -2.4061 O   0  0  0  0  0  0  0  0  0  0  0  0
    6.8662   -0.0153   -0.0005 O   0  0  0  0  0  0  0  0  0  0  0  0
    4.8717    1.6162   -0.4716 C   0  0  0  0  0  0  0  0  0  0  0  0
    0.9732    1.1267    2.5211 C   0  0  0  0  0  0  0  0  0  0  0  0
   -0.0451    0.4180    3.1581 C   0  0  0  0  0  0  0  0  0  0  0  0
   -0.9818   -0.2899    2.4033 C   0  0  0  0  0  0  0  0  0  0  0  0
   -1.9397   -0.9583    3.0631 F   0  0  0  0  0  0  0  0  0  0  0  0
   -3.1416   -1.4511    1.7619 H   0  0  0  0  0  0  0  0  0  0  0  0
   -4.3912   -3.1122    0.6069 H   0  0  0  0  0  0  0  0  0  0  0  0
   -3.6875   -2.5959   -0.9400 H   0  0  0  0  0  0  0  0  0  0  0  0
   -4.8231   -0.1169   -1.9795 H   0  0  0  0  0  0  0  0  0  0  0  0
   -7.0998    1.1684   -1.1638 H   0  0  0  0  0  0  0  0  0  0  0  0
   -7.7468   -0.0496    1.2311 H   0  0  0  0  0  0  0  0  0  0  0  0
    0.1376    0.4468   -0.7230 H   0  0  0  0  0  0  0  0  0  0  0  0
    3.8978    0.5079    1.0998 H   0  0  0  0  0  0  0  0  0  0  0  0
    2.5977   -0.9361   -0.4622 H   0  0  0  0  0  0  0  0  0  0  0  0
    2.9750    0.1357   -1.8124 H   0  0  0  0  0  0  0  0  0  0  0  0
    4.7040   -1.4953   -2.0401 H   0  0  0  0  0  0  0  0  0  0  0  0
    4.8851   -1.6665   -0.2670 H   0  0  0  0  0  0  0  0  0  0  0  0
    5.4042    2.2118    0.2738 H   0  0  0  0  0  0  0  0  0  0  0  0
    4.6173    2.2463   -1.3295 H   0  0  0  0  0  0  0  0  0  0  0  0
    1.6884    1.6914    3.1173 H   0  0  0  0  0  0  0  0  0  0  0  0
   -0.1221    0.4169    4.2424 H   0  0  0  0  0  0  0  0  0  0  0  0
  1  2  2  0
  2  3  1  0
  3  4  1  0
  4  5  1  0
  5  6  2  0
  6  7  1  0
  7  8  2  0
  8  9  1  0
  2 10  1  0
 10 11  2  0
 11 12  1  0
 12 13  1  0
 13 14  2  0
 13 15  2  0
 13 16  1  0
 16 17  1  0
 17 18  1  0
 18 19  1  0
 19 20  2  0
 19 21  2  0
 19 22  1  0
 12 23  2  0
 23 24  1  0
 24 25  2  0
 25 26  1  0
  9  5  1  0
 25 10  1  0
 22 16  1  0
  3 27  1  0
  4 28  1  0
  4 29  1  0
  6 30  1  0
  7 31  1  0
  8 32  1  0
 11 33  1  0
 16 34  1  0
 17 35  1  0
 17 36  1  0
 18 37  1  0
 18 38  1  0
 22 39  1  0
 22 40  1  0
 23 41  1  0
 24 42  1  0
M  END
$$$$
