
     RDKit          3D

 33 34  0  0  0  0  0  0  0  0999 V2000
    5.5943    1.2908   -0.3949 C   0  0  0  0  0  0  0  0  0  0  0  0
    5.1207   -0.0023    0.2155 C   0  0  0  0  0  0  0  0  0  0  0  0
    5.9193   -0.8255    0.6588 O   0  0  0  0  0  0  0  0  0  0  0  0
    3.6548   -0.2779    0.2777 C   0  0  0  0  0  0  0  0  0  0  0  0
    2.7028    0.6198   -0.2097 C   0  0  0  0  0  0  0  0  0  0  0  0
    1.3360    0.3147   -0.1280 C   0  0  0  0  0  0  0  0  0  0  0  0
    0.8864   -0.8829    0.4367 C   0  0  0  0  0  0  0  0  0  0  0  0
   -0.4604   -1.2381    0.5439 N   0  0  0  0  0  0  0  0  0  0  0  0
   -1.6582   -0.6270    0.1847 C   0  0  0  0  0  0  0  0  0  0  0  0
   -2.7604   -1.3375    0.4783 N   0  0  0  0  0  0  0  0  0  0  0  0
   -3.9577   -0.8061    0.1582 C   0  0  0  0  0  0  0  0  0  0  0  0
   -5.1786   -1.6092    0.4912 C   0  0  0  0  0  0  0  0  0  0  0  0
   -4.0790    0.4238   -0.4508 C   0  0  0  0  0  0  0  0  0  0  0  0
   -2.9027    1.0893   -0.7186 C   0  0  0  0  0  0  0  0  0  0  0  0
   -2.9269    2.4342   -1.3791 C   0  0  0  0  0  0  0  0  0  0  0  0
   -1.6962    0.5756   -0.4067 N   0  0  0  0  0  0  0  0  0  0  0  0
    1.8561   -1.7741    0.9218 C   0  0  0  0  0  0  0  0  0  0  0  0
    3.2224   -1.4794    0.8453 C   0  0  0  0  0  0  0  0  0  0  0  0
    5.2894    1.3494   -1.4429 H   0  0  0  0  0  0  0  0  0  0  0  0
    5.2090    2.1416    0.1730 H   0  0  0  0  0  0  0  0  0  0  0  0
    6.6877    1.3262   -0.3578 H   0  0  0  0  0  0  0  0  0  0  0  0
    2.9860    1.5665   -0.6597 H   0  0  0  0  0  0  0  0  0  0  0  0
    0.6304    1.0419   -0.5197 H   0  0  0  0  0  0  0  0  0  0  0  0
   -0.6720   -2.1284    0.9698 H   0  0  0  0  0  0  0  0  0  0  0  0
   -5.7412   -1.8377   -0.4193 H   0  0  0  0  0  0  0  0  0  0  0  0
   -4.9047   -2.5555    0.9688 H   0  0  0  0  0  0  0  0  0  0  0  0
   -5.8208   -1.0530    1.1812 H   0  0  0  0  0  0  0  0  0  0  0  0
   -5.0437    0.8436   -0.7046 H   0  0  0  0  0  0  0  0  0  0  0  0
   -3.4808    3.1489   -0.7624 H   0  0  0  0  0  0  0  0  0  0  0  0
   -1.9113    2.8191   -1.5173 H   0  0  0  0  0  0  0  0  0  0  0  0
   -3.4012    2.3642   -2.3630 H   0  0  0  0  0  0  0  0  0  0  0  0
    1.5563   -2.7189    1.3701 H   0  0  0  0  0  0  0  0  0  0  0  0
    3.9442   -2.1962    1.2326 H   0  0  0  0  0  0  0  0  0  0  0  0
  1  2  1  0
  2  3  2  0
  2  4  1  0
  4  5  2  0
  5  6  1  0
  6  7  2  0
  7  8  1  0
  8  9  1  0
  9 10  2  0
 10 11  1  0
 11 12  1  0
 11 13  2  0
 13 14  1  0
 14 15  1  0
 14 16  2  0
  7 17  1  0
 17 18  2  0
 18  4  1  0
 16  9  1  0
  1 19  1  0
  1 20  1  0
  1 21  1  0
  5 22  1  0
  6 23  1  0
  8 24  1  0
 12 25  1  0
 12 26  1  0
 12 27  1  0
 13 28  1  0
 15 29  1  0
 15 30  1  0
 15 31  1  0
 17 32  1  0
 18 33  1  0
M  END
$$$$
