
     RDKit          3D

 49 52  0  0  0  0  0  0  0  0999 V2000
    2.2008    0.9298   -2.2981 C   0  0  0  0  0  0  0  0  0  0  0  0
    3.8524    0.6816   -1.6666 S   0  0  0  0  0  6  0  0  0  0  0  0
    4.3644    1.9697   -1.2484 O   0  0  0  0  0  0  0  0  0  0  0  0
    4.5749   -0.1152   -2.6387 O   0  0  0  0  0  0  0  0  0  0  0  0
    3.5956   -0.2908   -0.3123 N   0  0  0  0  0  0  0  0  0  0  0  0
    3.2411   -1.7216   -0.5468 C   0  0  0  0  0  0  0  0  0  0  0  0
    2.4489   -2.1746    0.6919 C   0  0  0  0  0  0  0  0  0  0  0  0
    2.1470   -0.8835    1.3825 C   0  0  0  0  0  0  0  0  0  0  0  0
    1.3279   -0.6892    2.4849 C   0  0  0  0  0  0  0  0  0  0  0  0
    1.2186    0.6018    3.0073 C   0  0  0  0  0  0  0  0  0  0  0  0
    0.2671    0.8428    4.0378 N   0  0  0  0  0  0  0  0  0  0  0  0
   -1.0909    1.7913    3.6731 S   0  0  0  0  0  6  0  0  0  0  0  0
   -0.6684    3.1507    3.4156 O   0  0  0  0  0  0  0  0  0  0  0  0
   -2.0783    1.4862    4.6867 O   0  0  0  0  0  0  0  0  0  0  0  0
   -1.6638    1.0945    2.1375 C   0  0  0  0  0  0  0  0  0  0  0  0
   -2.4987   -0.0197    2.1454 C   0  0  0  0  0  0  0  0  0  0  0  0
   -2.8911   -0.5980    0.9301 C   0  0  0  0  0  0  0  0  0  0  0  0
   -2.4590   -0.0824   -0.3056 C   0  0  0  0  0  0  0  0  0  0  0  0
   -2.8220   -0.6937   -1.5461 N   0  0  0  0  0  0  0  0  0  0  0  0
   -2.1491   -0.4936   -2.7333 C   0  0  0  0  0  0  0  0  0  0  0  0
   -1.0935    0.0942   -2.9336 O   0  0  0  0  0  0  0  0  0  0  0  0
   -2.9078   -1.1583   -3.8408 C   0  0  0  0  0  0  0  0  0  0  0  0
   -3.8442   -2.0959   -3.1238 C   0  0  0  0  0  0  0  0  0  0  0  0
   -3.8465   -1.6014   -1.7081 C   0  0  0  0  0  0  0  0  0  0  0  0
   -4.6589   -2.0086   -0.8890 O   0  0  0  0  0  0  0  0  0  0  0  0
   -1.6532    1.0699   -0.2764 C   0  0  0  0  0  0  0  0  0  0  0  0
   -1.2661    1.6635    0.9295 C   0  0  0  0  0  0  0  0  0  0  0  0
    1.9650    1.6563    2.4625 C   0  0  0  0  0  0  0  0  0  0  0  0
    2.7949    1.4428    1.3564 C   0  0  0  0  0  0  0  0  0  0  0  0
    2.8356    0.1779    0.7981 C   0  0  0  0  0  0  0  0  0  0  0  0
    1.7616   -0.0329   -2.5601 H   0  0  0  0  0  0  0  0  0  0  0  0
    2.2800    1.5491   -3.1948 H   0  0  0  0  0  0  0  0  0  0  0  0
    1.5994    1.4491   -1.5507 H   0  0  0  0  0  0  0  0  0  0  0  0
    4.1461   -2.3235   -0.6765 H   0  0  0  0  0  0  0  0  0  0  0  0
    2.6175   -1.8348   -1.4398 H   0  0  0  0  0  0  0  0  0  0  0  0
    1.5396   -2.7116    0.4059 H   0  0  0  0  0  0  0  0  0  0  0  0
    3.0645   -2.8124    1.3348 H   0  0  0  0  0  0  0  0  0  0  0  0
    0.7743   -1.5198    2.9098 H   0  0  0  0  0  0  0  0  0  0  0  0
    0.0249    0.0696    4.6553 H   0  0  0  0  0  0  0  0  0  0  0  0
   -2.8418   -0.4540    3.0822 H   0  0  0  0  0  0  0  0  0  0  0  0
   -3.5216   -1.4817    0.9914 H   0  0  0  0  0  0  0  0  0  0  0  0
   -3.4520   -0.3959   -4.4070 H   0  0  0  0  0  0  0  0  0  0  0  0
   -2.2314   -1.6988   -4.5082 H   0  0  0  0  0  0  0  0  0  0  0  0
   -3.4719   -3.1251   -3.1394 H   0  0  0  0  0  0  0  0  0  0  0  0
   -4.8507   -2.0624   -3.5494 H   0  0  0  0  0  0  0  0  0  0  0  0
   -1.3213    1.5572   -1.1901 H   0  0  0  0  0  0  0  0  0  0  0  0
   -0.6412    2.5548    0.9113 H   0  0  0  0  0  0  0  0  0  0  0  0
    1.9007    2.6541    2.8928 H   0  0  0  0  0  0  0  0  0  0  0  0
    3.3807    2.2658    0.9608 H   0  0  0  0  0  0  0  0  0  0  0  0
  1  2  1  0
  2  3  2  0
  2  4  2  0
  2  5  1  0
  5  6  1  0
  6  7  1  0
  7  8  1  0
  8  9  2  0
  9 10  1  0
 10 11  1  0
 11 12  1  0
 12 13  2  0
 12 14  2  0
 12 15  1  0
 15 16  2  0
 16 17  1  0
 17 18  2  0
 18 19  1  0
 19 20  1  0
 20 21  2  0
 20 22  1  0
 22 23  1  0
 23 24  1  0
 24 25  2  0
 18 26  1  0
 26 27  2  0
 10 28  2  0
 28 29  1  0
 29 30  2  0
 30  5  1  0
 30  8  1  0
 27 15  1  0
 24 19  1  0
  1 31  1  0
  1 32  1  0
  1 33  1  0
  6 34  1  0
  6 35  1  0
  7 36  1  0
  7 37  1  0
  9 38  1  0
 11 39  1  0
 16 40  1  0
 17 41  1  0
 22 42  1  0
 22 43  1  0
 23 44  1  0
 23 45  1  0
 26 46  1  0
 27 47  1  0
 28 48  1  0
 29 49  1  0
M  END
$$$$
