
     RDKit          3D

 48 50  0  0  0  0  0  0  0  0999 V2000
   -3.4811   -2.6043    0.4173 C   0  0  0  0  0  0  0  0  0  0  0  0
   -3.6778   -1.2888    1.1227 C   0  0  0  0  0  0  0  0  0  0  0  0
   -4.6170   -1.2210    2.1662 C   0  0  0  0  0  0  0  0  0  0  0  0
   -4.8503   -0.0260    2.8456 C   0  0  0  0  0  0  0  0  0  0  0  0
   -4.1517    1.1208    2.4895 C   0  0  0  0  0  0  0  0  0  0  0  0
   -3.2185    1.0721    1.4546 C   0  0  0  0  0  0  0  0  0  0  0  0
   -2.9699   -0.1235    0.7502 C   0  0  0  0  0  0  0  0  0  0  0  0
   -1.9184   -0.1424   -0.3487 C   0  0  0  0  0  0  0  0  0  0  0  0
   -0.5155   -0.3161    0.2457 C   0  0  0  0  0  0  0  0  0  0  0  0
    0.2826    0.7667   -0.4299 C   0  0  0  0  0  0  0  0  0  0  0  0
    1.7481    0.8894   -0.2322 C   0  0  0  0  0  0  0  0  0  0  0  0
    2.4434    1.8889   -0.9233 C   0  0  0  0  0  0  0  0  0  0  0  0
    3.8181    2.0384   -0.7440 C   0  0  0  0  0  0  0  0  0  0  0  0
    4.5069    1.1852    0.1190 C   0  0  0  0  0  0  0  0  0  0  0  0
    3.8278    0.1708    0.7928 C   0  0  0  0  0  0  0  0  0  0  0  0
    4.4899   -0.7108    1.6941 N   0  0  0  0  0  0  0  0  0  0  0  0
    5.8746   -1.5523    1.2442 S   0  0  0  0  0  6  0  0  0  0  0  0
    5.3030   -2.5163   -0.1422 C   0  0  0  0  0  0  0  0  0  0  0  0
    6.1346   -2.4709    2.3331 O   0  0  0  0  0  0  0  0  0  0  0  0
    6.8883   -0.6314    0.7833 O   0  0  0  0  0  0  0  0  0  0  0  0
    2.4448    0.0335    0.6309 C   0  0  0  0  0  0  0  0  0  0  0  0
   -0.3943    1.5808   -1.1785 N   0  0  0  0  0  0  0  0  0  0  0  0
   -1.8219    1.1294   -1.1220 N   0  0  0  0  0  0  0  0  0  0  0  0
   -2.6842    1.1081   -2.6058 S   0  0  0  0  0  6  0  0  0  0  0  0
   -2.5053    2.8011   -3.1243 C   0  0  0  0  0  0  0  0  0  0  0  0
   -1.9648    0.2539   -3.5314 O   0  0  0  0  0  0  0  0  0  0  0  0
   -4.0830    0.8673   -2.3190 O   0  0  0  0  0  0  0  0  0  0  0  0
   -3.8378   -2.5360   -0.6155 H   0  0  0  0  0  0  0  0  0  0  0  0
   -2.4240   -2.8892    0.4250 H   0  0  0  0  0  0  0  0  0  0  0  0
   -4.0352   -3.4114    0.9088 H   0  0  0  0  0  0  0  0  0  0  0  0
   -5.1812   -2.1048    2.4566 H   0  0  0  0  0  0  0  0  0  0  0  0
   -5.5834    0.0092    3.6472 H   0  0  0  0  0  0  0  0  0  0  0  0
   -4.3363    2.0563    3.0105 H   0  0  0  0  0  0  0  0  0  0  0  0
   -2.6855    1.9844    1.1923 H   0  0  0  0  0  0  0  0  0  0  0  0
   -2.1038   -0.9662   -1.0476 H   0  0  0  0  0  0  0  0  0  0  0  0
   -0.1094   -1.3039    0.0052 H   0  0  0  0  0  0  0  0  0  0  0  0
   -0.4819   -0.1669    1.3309 H   0  0  0  0  0  0  0  0  0  0  0  0
    1.9221    2.5657   -1.5976 H   0  0  0  0  0  0  0  0  0  0  0  0
    4.3542    2.8262   -1.2691 H   0  0  0  0  0  0  0  0  0  0  0  0
    5.5722    1.3445    0.2679 H   0  0  0  0  0  0  0  0  0  0  0  0
    3.9283   -1.2258    2.3715 H   0  0  0  0  0  0  0  0  0  0  0  0
    5.0478   -1.8499   -0.9677 H   0  0  0  0  0  0  0  0  0  0  0  0
    4.4407   -3.1095    0.1697 H   0  0  0  0  0  0  0  0  0  0  0  0
    6.1164   -3.1799   -0.4448 H   0  0  0  0  0  0  0  0  0  0  0  0
    1.9223   -0.7409    1.1830 H   0  0  0  0  0  0  0  0  0  0  0  0
   -2.9241    3.4529   -2.3551 H   0  0  0  0  0  0  0  0  0  0  0  0
   -3.0599    2.9245   -4.0571 H   0  0  0  0  0  0  0  0  0  0  0  0
   -1.4500    3.0180   -3.2948 H   0  0  0  0  0  0  0  0  0  0  0  0
  1  2  1  0
  2  3  2  0
  3  4  1  0
  4  5  2  0
  5  6  1  0
  6  7  2  0
  7  8  1  0
  8  9  1  0
  9 10  1  0
 10 11  1  0
 11 12  2  0
 12 13  1  0
 13 14  2  0
 14 15  1  0
 15 16  1  0
 16 17  1  0
 17 18  1  0
 17 19  2  0
 17 20  2  0
 15 21  2  0
 10 22  2  0
 22 23  1  0
 23 24  1  0
 24 25  1  0
 24 26  2  0
 24 27  2  0
  7  2  1  0
 23  8  1  0
 21 11  1  0
  1 28  1  0
  1 29  1  0
  1 30  1  0
  3 31  1  0
  4 32  1  0
  5 33  1  0
  6 34  1  0
  8 35  1  0
  9 36  1  0
  9 37  1  0
 12 38  1  0
 13 39  1  0
 14 40  1  0
 16 41  1  0
 18 42  1  0
 18 43  1  0
 18 44  1  0
 21 45  1  0
 25 46  1  0
 25 47  1  0
 25 48  1  0
M  END
$$$$
