
     RDKit          3D

 51 54  0  0  0  0  0  0  0  0999 V2000
   -8.6261    0.7625    0.5841 C   0  0  0  0  0  0  0  0  0  0  0  0
   -7.1669    0.5141    0.3445 C   0  0  0  0  0  0  0  0  0  0  0  0
   -6.6875   -0.7885    0.1754 C   0  0  0  0  0  0  0  0  0  0  0  0
   -5.3218   -1.0284   -0.0162 C   0  0  0  0  0  0  0  0  0  0  0  0
   -4.4116    0.0285   -0.0257 C   0  0  0  0  0  0  0  0  0  0  0  0
   -3.0248   -0.1285   -0.2273 N   0  0  0  0  0  0  0  0  0  0  0  0
   -2.3038   -1.3015   -0.2406 C   0  0  0  0  0  0  0  0  0  0  0  0
   -2.7494   -2.4067    0.0564 O   0  0  0  0  0  0  0  0  0  0  0  0
   -0.9737   -1.1437   -0.6141 N   0  0  0  0  0  0  0  0  0  0  0  0
   -0.0849   -2.3088   -0.5439 C   0  0  0  0  0  0  0  0  0  0  0  0
    1.3741   -1.9050   -0.2658 C   0  0  0  0  0  0  0  0  0  0  0  0
    1.8914   -0.9173   -1.2489 N   0  0  0  0  0  0  0  0  0  0  0  0
    2.8242   -0.0283   -0.6768 C   0  0  0  0  0  0  0  0  0  0  0  0
    3.9965   -0.5342   -0.1396 C   0  0  0  0  0  0  0  0  0  0  0  0
    4.8869    0.3697    0.4074 C   0  0  0  0  0  0  0  0  0  0  0  0
    6.1214   -0.0898    0.9735 N   0  0  0  0  0  0  0  0  0  0  0  0
    6.5976   -1.3867    1.0608 C   0  0  0  0  0  0  0  0  0  0  0  0
    7.8214   -1.3317    1.6852 C   0  0  0  0  0  0  0  0  0  0  0  0
    8.0209    0.0294    1.9476 C   0  0  0  0  0  0  0  0  0  0  0  0
    7.0082    0.7847    1.5268 N   0  0  0  0  0  0  0  0  0  0  0  0
    4.6347    1.6973    0.4272 N   0  0  0  0  0  0  0  0  0  0  0  0
    3.4825    2.1050   -0.1154 C   0  0  0  0  0  0  0  0  0  0  0  0
    3.2107    3.5759   -0.1407 C   0  0  0  0  0  0  0  0  0  0  0  0
    2.5720    1.2911   -0.6759 N   0  0  0  0  0  0  0  0  0  0  0  0
    0.8558   -0.2646   -2.0795 C   0  0  0  0  0  0  0  0  0  0  0  0
   -0.4153    0.0493   -1.2733 C   0  0  0  0  0  0  0  0  0  0  0  0
   -4.8909    1.3322    0.1496 C   0  0  0  0  0  0  0  0  0  0  0  0
   -6.2552    1.5733    0.3413 C   0  0  0  0  0  0  0  0  0  0  0  0
   -8.9218    1.7479    0.2088 H   0  0  0  0  0  0  0  0  0  0  0  0
   -8.8432    0.7125    1.6555 H   0  0  0  0  0  0  0  0  0  0  0  0
   -9.2392    0.0196    0.0630 H   0  0  0  0  0  0  0  0  0  0  0  0
   -7.3728   -1.6334    0.1884 H   0  0  0  0  0  0  0  0  0  0  0  0
   -5.0017   -2.0558   -0.1600 H   0  0  0  0  0  0  0  0  0  0  0  0
   -2.4783    0.7158   -0.1801 H   0  0  0  0  0  0  0  0  0  0  0  0
   -0.4262   -2.9992    0.2352 H   0  0  0  0  0  0  0  0  0  0  0  0
   -0.1621   -2.8335   -1.5039 H   0  0  0  0  0  0  0  0  0  0  0  0
    1.4143   -1.4929    0.7523 H   0  0  0  0  0  0  0  0  0  0  0  0
    2.0063   -2.8000   -0.2905 H   0  0  0  0  0  0  0  0  0  0  0  0
    4.1857   -1.5961   -0.1853 H   0  0  0  0  0  0  0  0  0  0  0  0
    6.0462   -2.2315    0.6795 H   0  0  0  0  0  0  0  0  0  0  0  0
    8.4765   -2.1595    1.9166 H   0  0  0  0  0  0  0  0  0  0  0  0
    8.8639    0.5082    2.4296 H   0  0  0  0  0  0  0  0  0  0  0  0
    3.6425    4.0148   -1.0448 H   0  0  0  0  0  0  0  0  0  0  0  0
    3.6511    4.0640    0.7342 H   0  0  0  0  0  0  0  0  0  0  0  0
    2.1336    3.7691   -0.1345 H   0  0  0  0  0  0  0  0  0  0  0  0
    1.2265    0.6327   -2.5902 H   0  0  0  0  0  0  0  0  0  0  0  0
    0.5971   -0.9646   -2.8850 H   0  0  0  0  0  0  0  0  0  0  0  0
   -0.2023    0.7783   -0.4834 H   0  0  0  0  0  0  0  0  0  0  0  0
   -1.1714    0.4793   -1.9391 H   0  0  0  0  0  0  0  0  0  0  0  0
   -4.2114    2.1801    0.1463 H   0  0  0  0  0  0  0  0  0  0  0  0
   -6.5999    2.5945    0.4870 H   0  0  0  0  0  0  0  0  0  0  0  0
  1  2  1  0
  2  3  2  0
  3  4  1  0
  4  5  2  0
  5  6  1  0
  6  7  1  0
  7  8  2  0
  7  9  1  0
  9 10  1  0
 10 11  1  0
 11 12  1  0
 12 13  1  0
 13 14  2  0
 14 15  1  0
 15 16  1  0
 16 17  1  0
 17 18  2  0
 18 19  1  0
 19 20  2  0
 15 21  2  0
 21 22  1  0
 22 23  1  0
 22 24  2  0
 12 25  1  0
 25 26  1  0
  5 27  1  0
 27 28  2  0
 28  2  1  0
 26  9  1  0
 24 13  1  0
 20 16  1  0
  1 29  1  0
  1 30  1  0
  1 31  1  0
  3 32  1  0
  4 33  1  0
  6 34  1  0
 10 35  1  0
 10 36  1  0
 11 37  1  0
 11 38  1  0
 14 39  1  0
 17 40  1  0
 18 41  1  0
 19 42  1  0
 23 43  1  0
 23 44  1  0
 23 45  1  0
 25 46  1  0
 25 47  1  0
 26 48  1  0
 26 49  1  0
 27 50  1  0
 28 51  1  0
M  END
$$$$
