
     RDKit          3D

 37 38  0  0  0  0  0  0  0  0999 V2000
   -6.9530    0.5826    0.9181 C   0  0  0  0  0  0  0  0  0  0  0  0
   -6.0799   -0.6184    0.6647 C   0  0  0  0  0  0  0  0  0  0  0  0
   -6.5499   -1.7545    0.6483 O   0  0  0  0  0  0  0  0  0  0  0  0
   -4.6196   -0.4148    0.4295 C   0  0  0  0  0  0  0  0  0  0  0  0
   -3.8140   -1.5378    0.2114 C   0  0  0  0  0  0  0  0  0  0  0  0
   -2.4408   -1.3921   -0.0126 C   0  0  0  0  0  0  0  0  0  0  0  0
   -1.8495   -0.1238   -0.0210 C   0  0  0  0  0  0  0  0  0  0  0  0
   -0.4635   -0.0635   -0.2573 N   0  0  0  0  0  0  0  0  0  0  0  0
    0.3604    1.0518   -0.2373 C   0  0  0  0  0  0  0  0  0  0  0  0
   -0.0007    2.2022    0.0035 O   0  0  0  0  0  0  0  0  0  0  0  0
    1.8178    0.7609   -0.6264 C   0  0  0  0  0  0  0  0  0  0  0  0
    1.8981    0.4664   -2.1215 C   0  0  0  0  0  0  0  0  0  0  0  0
    2.4414   -0.6663    0.3599 S   0  0  0  0  0  0  0  0  0  0  0  0
    4.2035   -0.3925    0.3068 C   0  0  0  0  0  0  0  0  0  0  0  0
    5.0310   -1.2359    1.0407 C   0  0  0  0  0  0  0  0  0  0  0  0
    6.4079   -1.0291    1.0018 C   0  0  0  0  0  0  0  0  0  0  0  0
    6.9166    0.0097    0.2336 C   0  0  0  0  0  0  0  0  0  0  0  0
    6.0218    0.7997   -0.4667 C   0  0  0  0  0  0  0  0  0  0  0  0
    4.6824    0.6192   -0.4474 N   0  0  0  0  0  0  0  0  0  0  0  0
   -2.6559    0.9950    0.1930 C   0  0  0  0  0  0  0  0  0  0  0  0
   -4.0327    0.8536    0.4182 C   0  0  0  0  0  0  0  0  0  0  0  0
   -6.9469    1.2453    0.0489 H   0  0  0  0  0  0  0  0  0  0  0  0
   -6.6206    1.1108    1.8154 H   0  0  0  0  0  0  0  0  0  0  0  0
   -7.9825    0.2496    1.0838 H   0  0  0  0  0  0  0  0  0  0  0  0
   -4.2506   -2.5353    0.2150 H   0  0  0  0  0  0  0  0  0  0  0  0
   -1.8459   -2.2871   -0.1774 H   0  0  0  0  0  0  0  0  0  0  0  0
    0.0139   -0.9509   -0.3759 H   0  0  0  0  0  0  0  0  0  0  0  0
    2.3920    1.6595   -0.3754 H   0  0  0  0  0  0  0  0  0  0  0  0
    2.9300    0.3277   -2.4579 H   0  0  0  0  0  0  0  0  0  0  0  0
    1.3280   -0.4278   -2.3981 H   0  0  0  0  0  0  0  0  0  0  0  0
    1.4773    1.3012   -2.6939 H   0  0  0  0  0  0  0  0  0  0  0  0
    4.6194   -2.0427    1.6385 H   0  0  0  0  0  0  0  0  0  0  0  0
    7.0750   -1.6731    1.5679 H   0  0  0  0  0  0  0  0  0  0  0  0
    7.9829    0.2000    0.1821 H   0  0  0  0  0  0  0  0  0  0  0  0
    6.3682    1.6257   -1.0817 H   0  0  0  0  0  0  0  0  0  0  0  0
   -2.2458    2.0007    0.1894 H   0  0  0  0  0  0  0  0  0  0  0  0
   -4.6160    1.7553    0.5802 H   0  0  0  0  0  0  0  0  0  0  0  0
  1  2  1  0
  2  3  2  0
  2  4  1  0
  4  5  2  0
  5  6  1  0
  6  7  2  0
  7  8  1  0
  8  9  1  0
  9 10  2  0
  9 11  1  0
 11 12  1  0
 11 13  1  0
 13 14  1  0
 14 15  2  0
 15 16  1  0
 16 17  2  0
 17 18  1  0
 18 19  2  0
  7 20  1  0
 20 21  2  0
 21  4  1  0
 19 14  1  0
  1 22  1  0
  1 23  1  0
  1 24  1  0
  5 25  1  0
  6 26  1  0
  8 27  1  0
 11 28  1  0
 12 29  1  0
 12 30  1  0
 12 31  1  0
 15 32  1  0
 16 33  1  0
 17 34  1  0
 18 35  1  0
 20 36  1  0
 21 37  1  0
M  END
$$$$
