
     RDKit          3D

 30 32  0  0  0  0  0  0  0  0999 V2000
   -5.8593   -0.0614    0.1656 N   0  0  0  0  0  0  0  0  0  0  0  0
   -4.4609   -0.0685    0.2201 C   0  0  0  0  0  0  0  0  0  0  0  0
   -3.7135   -0.4024   -0.9097 C   0  0  0  0  0  0  0  0  0  0  0  0
   -2.3177   -0.2996   -0.9018 C   0  0  0  0  0  0  0  0  0  0  0  0
   -1.6425    0.1856    0.2242 C   0  0  0  0  0  0  0  0  0  0  0  0
   -0.1727    0.3032    0.2235 C   0  0  0  0  0  0  0  0  0  0  0  0
    0.4211    1.4561    0.5719 C   0  0  0  0  0  0  0  0  0  0  0  0
    1.7702    1.7134    0.6056 O   0  0  0  0  0  0  0  0  0  0  0  0
    2.6209    0.7013    0.2412 C   0  0  0  0  0  0  0  0  0  0  0  0
    3.9889    0.9765    0.2821 C   0  0  0  0  0  0  0  0  0  0  0  0
    4.8923   -0.0190   -0.0801 C   0  0  0  0  0  0  0  0  0  0  0  0
    6.2376    0.2002   -0.0570 O   0  0  0  0  0  0  0  0  0  0  0  0
    4.4509   -1.2772   -0.4800 C   0  0  0  0  0  0  0  0  0  0  0  0
    3.0829   -1.5500   -0.5204 C   0  0  0  0  0  0  0  0  0  0  0  0
    2.1685   -0.5550   -0.1580 C   0  0  0  0  0  0  0  0  0  0  0  0
    0.7180   -0.8179   -0.1923 C   0  0  0  0  0  0  0  0  0  0  0  0
    0.2908   -1.9107   -0.5462 O   0  0  0  0  0  0  0  0  0  0  0  0
   -2.4005    0.5709    1.3388 C   0  0  0  0  0  0  0  0  0  0  0  0
   -3.7962    0.4652    1.3249 C   0  0  0  0  0  0  0  0  0  0  0  0
   -6.3037   -0.1280    1.0758 H   0  0  0  0  0  0  0  0  0  0  0  0
   -6.2428   -0.7287   -0.4969 H   0  0  0  0  0  0  0  0  0  0  0  0
   -4.2087   -0.7556   -1.8103 H   0  0  0  0  0  0  0  0  0  0  0  0
   -1.7657   -0.5988   -1.7908 H   0  0  0  0  0  0  0  0  0  0  0  0
   -0.1196    2.3479    0.8674 H   0  0  0  0  0  0  0  0  0  0  0  0
    4.3279    1.9589    0.5942 H   0  0  0  0  0  0  0  0  0  0  0  0
    6.4063    1.1110    0.2360 H   0  0  0  0  0  0  0  0  0  0  0  0
    5.1696   -2.0432   -0.7594 H   0  0  0  0  0  0  0  0  0  0  0  0
    2.7343   -2.5322   -0.8321 H   0  0  0  0  0  0  0  0  0  0  0  0
   -1.9173    0.9588    2.2325 H   0  0  0  0  0  0  0  0  0  0  0  0
   -4.3594    0.7993    2.1921 H   0  0  0  0  0  0  0  0  0  0  0  0
  1  2  1  0
  2  3  2  0
  3  4  1  0
  4  5  2  0
  5  6  1  0
  6  7  2  0
  7  8  1  0
  8  9  1  0
  9 10  2  0
 10 11  1  0
 11 12  1  0
 11 13  2  0
 13 14  1  0
 14 15  2  0
 15 16  1  0
 16 17  2  0
  5 18  1  0
 18 19  2  0
 19  2  1  0
 16  6  1  0
 15  9  1  0
  1 20  1  0
  1 21  1  0
  3 22  1  0
  4 23  1  0
  7 24  1  0
 10 25  1  0
 12 26  1  0
 13 27  1  0
 14 28  1  0
 18 29  1  0
 19 30  1  0
M  END
$$$$
