
     RDKit          3D

 48 50  0  0  0  0  0  0  0  0999 V2000
    1.1008    0.9287   -0.4311 O   0  0  0  0  0  0  0  0  0  0  0  0
    1.0376    0.6268    0.7565 C   0  0  0  0  0  0  0  0  0  0  0  0
    2.1384    0.2602    1.4963 N   0  0  0  0  0  0  0  0  0  0  0  0
    3.4646    0.1850    0.9104 C   0  0  0  0  0  0  0  0  0  0  0  0
    3.6708   -1.1064    0.1162 C   0  0  0  0  0  0  0  0  0  0  0  0
    5.0661   -1.1983   -0.4481 C   0  0  0  0  0  0  0  0  0  0  0  0
    5.3803   -0.5670   -1.6592 C   0  0  0  0  0  0  0  0  0  0  0  0
    6.6751   -0.6328   -2.1754 C   0  0  0  0  0  0  0  0  0  0  0  0
    7.6671   -1.3265   -1.4852 C   0  0  0  0  0  0  0  0  0  0  0  0
    7.3658   -1.9541   -0.2777 C   0  0  0  0  0  0  0  0  0  0  0  0
    6.0715   -1.8893    0.2408 C   0  0  0  0  0  0  0  0  0  0  0  0
   -0.2830    0.6415    1.4420 C   0  0  0  0  0  0  0  0  0  0  0  0
   -1.3711    1.2181    0.7676 C   0  0  0  0  0  0  0  0  0  0  0  0
   -2.6399    1.2133    1.3571 C   0  0  0  0  0  0  0  0  0  0  0  0
   -4.0075    1.9693    0.5064 S   0  0  0  0  0  6  0  0  0  0  0  0
   -4.9908    2.3133    1.5148 O   0  0  0  0  0  0  0  0  0  0  0  0
   -3.4670    2.9822   -0.3763 O   0  0  0  0  0  0  0  0  0  0  0  0
   -4.6943    0.6689   -0.4830 C   0  0  0  0  0  0  0  0  0  0  0  0
   -3.7758    0.1911   -1.6100 C   0  0  0  0  0  0  0  0  0  0  0  0
   -4.6195   -0.7306   -2.4810 C   0  0  0  0  0  0  0  0  0  0  0  0
   -6.2663   -0.0426   -2.4463 S   0  0  0  0  0  6  0  0  0  0  0  0
   -6.5116    0.6575   -3.6875 O   0  0  0  0  0  0  0  0  0  0  0  0
   -7.1650   -1.0517   -1.9266 O   0  0  0  0  0  0  0  0  0  0  0  0
   -5.9701    1.1503   -1.1628 C   0  0  0  0  0  0  0  0  0  0  0  0
   -2.8334    0.6716    2.6310 C   0  0  0  0  0  0  0  0  0  0  0  0
   -1.7506    0.1073    3.3053 C   0  0  0  0  0  0  0  0  0  0  0  0
   -0.4884    0.0916    2.7101 C   0  0  0  0  0  0  0  0  0  0  0  0
    0.5198   -0.4717    3.3931 F   0  0  0  0  0  0  0  0  0  0  0  0
    2.0240   -0.0391    2.4587 H   0  0  0  0  0  0  0  0  0  0  0  0
    3.6122    1.0615    0.2684 H   0  0  0  0  0  0  0  0  0  0  0  0
    4.1823    0.2520    1.7356 H   0  0  0  0  0  0  0  0  0  0  0  0
    3.4724   -1.9750    0.7575 H   0  0  0  0  0  0  0  0  0  0  0  0
    2.9433   -1.1768   -0.7024 H   0  0  0  0  0  0  0  0  0  0  0  0
    4.6155   -0.0193   -2.2070 H   0  0  0  0  0  0  0  0  0  0  0  0
    6.9091   -0.1416   -3.1163 H   0  0  0  0  0  0  0  0  0  0  0  0
    8.6751   -1.3775   -1.8882 H   0  0  0  0  0  0  0  0  0  0  0  0
    8.1402   -2.4943    0.2607 H   0  0  0  0  0  0  0  0  0  0  0  0
    5.8537   -2.3831    1.1849 H   0  0  0  0  0  0  0  0  0  0  0  0
   -1.2194    1.6728   -0.2116 H   0  0  0  0  0  0  0  0  0  0  0  0
   -4.9287   -0.1645    0.1910 H   0  0  0  0  0  0  0  0  0  0  0  0
   -2.8911   -0.3321   -1.2358 H   0  0  0  0  0  0  0  0  0  0  0  0
   -3.4243    1.0405   -2.2083 H   0  0  0  0  0  0  0  0  0  0  0  0
   -4.6678   -1.7368   -2.0544 H   0  0  0  0  0  0  0  0  0  0  0  0
   -4.2581   -0.7784   -3.5102 H   0  0  0  0  0  0  0  0  0  0  0  0
   -5.8461    2.1292   -1.6363 H   0  0  0  0  0  0  0  0  0  0  0  0
   -6.8254    1.1789   -0.4835 H   0  0  0  0  0  0  0  0  0  0  0  0
   -3.8109    0.6955    3.1104 H   0  0  0  0  0  0  0  0  0  0  0  0
   -1.8794   -0.3177    4.2975 H   0  0  0  0  0  0  0  0  0  0  0  0
  1  2  2  0
  2  3  1  0
  3  4  1  0
  4  5  1  0
  5  6  1  0
  6  7  2  0
  7  8  1  0
  8  9  2  0
  9 10  1  0
 10 11  2  0
  2 12  1  0
 12 13  2  0
 13 14  1  0
 14 15  1  0
 15 16  2  0
 15 17  2  0
 15 18  1  0
 18 19  1  0
 19 20  1  0
 20 21  1  0
 21 22  2  0
 21 23  2  0
 21 24  1  0
 14 25  2  0
 25 26  1  0
 26 27  2  0
 27 28  1  0
 11  6  1  0
 27 12  1  0
 24 18  1  0
  3 29  1  0
  4 30  1  0
  4 31  1  0
  5 32  1  0
  5 33  1  0
  7 34  1  0
  8 35  1  0
  9 36  1  0
 10 37  1  0
 11 38  1  0
 13 39  1  0
 18 40  1  0
 19 41  1  0
 19 42  1  0
 20 43  1  0
 20 44  1  0
 24 45  1  0
 24 46  1  0
 25 47  1  0
 26 48  1  0
M  END
$$$$
