
     RDKit          3D

 53 55  0  0  0  0  0  0  0  0999 V2000
   -6.9129   -1.7491    0.9605 C   0  0  0  0  0  0  0  0  0  0  0  0
   -5.9170   -1.1665    1.9468 C   0  0  0  0  0  0  0  0  0  0  0  0
   -5.0558   -0.1892    1.3197 N   0  0  0  0  0  0  0  0  0  0  0  0
   -3.9238   -0.5370    0.6211 C   0  0  0  0  0  0  0  0  0  0  0  0
   -3.5363   -1.6995    0.5383 O   0  0  0  0  0  0  0  0  0  0  0  0
   -3.1520    0.5605   -0.0564 C   0  0  0  0  0  0  0  0  0  0  0  0
   -2.0261    0.1488   -0.7936 C   0  0  0  0  0  0  0  0  0  0  0  0
   -1.2292    1.0879   -1.4495 C   0  0  0  0  0  0  0  0  0  0  0  0
    0.1943    0.5364   -2.3549 S   0  0  0  0  0  6  0  0  0  0  0  0
    1.0324    1.6870   -2.6225 O   0  0  0  0  0  0  0  0  0  0  0  0
   -0.2873   -0.3144   -3.4199 O   0  0  0  0  0  0  0  0  0  0  0  0
    1.0159   -0.4262   -1.2183 N   0  0  0  0  0  0  0  0  0  0  0  0
    1.5980    0.3058   -0.0452 C   0  0  0  0  0  0  0  0  0  0  0  0
    3.1244    0.4813   -0.1505 C   0  0  0  0  0  0  0  0  0  0  0  0
    3.7979   -0.8237   -0.2484 N   0  0  0  0  0  0  0  0  0  0  0  0
    5.0951   -1.0086    0.1989 C   0  0  0  0  0  0  0  0  0  0  0  0
    5.9854    0.0666    0.3563 C   0  0  0  0  0  0  0  0  0  0  0  0
    7.2987   -0.1149    0.8085 C   0  0  0  0  0  0  0  0  0  0  0  0
    7.7588   -1.3879    1.1195 C   0  0  0  0  0  0  0  0  0  0  0  0
    6.9048   -2.4738    0.9761 C   0  0  0  0  0  0  0  0  0  0  0  0
    5.5939   -2.2817    0.5212 C   0  0  0  0  0  0  0  0  0  0  0  0
    3.0225   -1.9215   -0.8503 C   0  0  0  0  0  0  0  0  0  0  0  0
    1.9848   -1.3821   -1.8517 C   0  0  0  0  0  0  0  0  0  0  0  0
   -1.5367    2.4436   -1.3888 C   0  0  0  0  0  0  0  0  0  0  0  0
   -2.6568    2.8627   -0.6663 C   0  0  0  0  0  0  0  0  0  0  0  0
   -3.4743    1.9365    0.0044 C   0  0  0  0  0  0  0  0  0  0  0  0
   -4.5843    2.3045    0.7239 O   0  0  0  0  0  0  0  0  0  0  0  0
   -4.9187    3.6874    0.7841 C   0  0  0  0  0  0  0  0  0  0  0  0
   -7.5347   -0.9614    0.5222 H   0  0  0  0  0  0  0  0  0  0  0  0
   -7.5698   -2.4672    1.4607 H   0  0  0  0  0  0  0  0  0  0  0  0
   -6.4027   -2.2650    0.1405 H   0  0  0  0  0  0  0  0  0  0  0  0
   -6.4442   -0.6599    2.7612 H   0  0  0  0  0  0  0  0  0  0  0  0
   -5.3041   -1.9651    2.3781 H   0  0  0  0  0  0  0  0  0  0  0  0
   -5.3462    0.7828    1.3028 H   0  0  0  0  0  0  0  0  0  0  0  0
   -1.7697   -0.9087   -0.8577 H   0  0  0  0  0  0  0  0  0  0  0  0
    1.1273    1.2859    0.0831 H   0  0  0  0  0  0  0  0  0  0  0  0
    1.3484   -0.2740    0.8525 H   0  0  0  0  0  0  0  0  0  0  0  0
    3.3771    1.0869   -1.0287 H   0  0  0  0  0  0  0  0  0  0  0  0
    3.4520    1.0223    0.7453 H   0  0  0  0  0  0  0  0  0  0  0  0
    5.6800    1.0776    0.1016 H   0  0  0  0  0  0  0  0  0  0  0  0
    7.9585    0.7426    0.9093 H   0  0  0  0  0  0  0  0  0  0  0  0
    8.7764   -1.5330    1.4706 H   0  0  0  0  0  0  0  0  0  0  0  0
    7.2502   -3.4747    1.2206 H   0  0  0  0  0  0  0  0  0  0  0  0
    4.9572   -3.1588    0.4481 H   0  0  0  0  0  0  0  0  0  0  0  0
    2.5192   -2.4854   -0.0557 H   0  0  0  0  0  0  0  0  0  0  0  0
    3.6772   -2.6103   -1.3975 H   0  0  0  0  0  0  0  0  0  0  0  0
    2.5127   -0.8814   -2.6731 H   0  0  0  0  0  0  0  0  0  0  0  0
    1.4178   -2.2228   -2.2665 H   0  0  0  0  0  0  0  0  0  0  0  0
   -0.9198    3.1784   -1.9029 H   0  0  0  0  0  0  0  0  0  0  0  0
   -2.8642    3.9287   -0.6497 H   0  0  0  0  0  0  0  0  0  0  0  0
   -4.1268    4.2633    1.2739 H   0  0  0  0  0  0  0  0  0  0  0  0
   -5.1438    4.0825   -0.2118 H   0  0  0  0  0  0  0  0  0  0  0  0
   -5.8236    3.7838    1.3918 H   0  0  0  0  0  0  0  0  0  0  0  0
  1  2  1  0
  2  3  1  0
  3  4  1  0
  4  5  2  0
  4  6  1  0
  6  7  2  0
  7  8  1  0
  8  9  1  0
  9 10  2  0
  9 11  2  0
  9 12  1  0
 12 13  1  0
 13 14  1  0
 14 15  1  0
 15 16  1  0
 16 17  2  0
 17 18  1  0
 18 19  2  0
 19 20  1  0
 20 21  2  0
 15 22  1  0
 22 23  1  0
  8 24  2  0
 24 25  1  0
 25 26  2  0
 26 27  1  0
 27 28  1  0
 26  6  1  0
 23 12  1  0
 21 16  1  0
  1 29  1  0
  1 30  1  0
  1 31  1  0
  2 32  1  0
  2 33  1  0
  3 34  1  0
  7 35  1  0
 13 36  1  0
 13 37  1  0
 14 38  1  0
 14 39  1  0
 17 40  1  0
 18 41  1  0
 19 42  1  0
 20 43  1  0
 21 44  1  0
 22 45  1  0
 22 46  1  0
 23 47  1  0
 23 48  1  0
 24 49  1  0
 25 50  1  0
 28 51  1  0
 28 52  1  0
 28 53  1  0
M  END
$$$$
