
     RDKit          3D

 41 42  0  0  0  0  0  0  0  0999 V2000
   -5.0528    0.3999   -1.3011 C   0  0  0  0  0  0  0  0  0  0  0  0
   -4.6080    1.6278   -0.0916 S   0  0  0  0  0  6  0  0  0  0  0  0
   -5.7194    1.7710    0.8236 O   0  0  0  0  0  0  0  0  0  0  0  0
   -4.0672    2.7692   -0.7972 O   0  0  0  0  0  0  0  0  0  0  0  0
   -3.3462    0.8770    0.7273 N   0  0  0  0  0  0  0  0  0  0  0  0
   -3.6184   -0.0785    1.8156 C   0  0  0  0  0  0  0  0  0  0  0  0
   -3.2082   -1.4916    1.4179 C   0  0  0  0  0  0  0  0  0  0  0  0
   -1.7614   -1.5353    0.9342 C   0  0  0  0  0  0  0  0  0  0  0  0
   -1.5658   -0.5560   -0.2266 C   0  0  0  0  0  0  0  0  0  0  0  0
   -0.1406   -0.5725   -0.7705 C   0  0  0  0  0  0  0  0  0  0  0  0
    0.0481   -0.8570   -1.9500 O   0  0  0  0  0  0  0  0  0  0  0  0
    0.8348   -0.2403    0.1523 N   0  0  0  0  0  0  0  0  0  0  0  0
    2.2291   -0.1731   -0.0596 C   0  0  0  0  0  0  0  0  0  0  0  0
    3.0215    0.2109    1.0317 C   0  0  0  0  0  0  0  0  0  0  0  0
    4.4135    0.3055    0.9123 C   0  0  0  0  0  0  0  0  0  0  0  0
    5.0310    0.0179   -0.3083 C   0  0  0  0  0  0  0  0  0  0  0  0
    6.5049    0.0958   -0.4875 C   0  0  0  0  0  0  0  0  0  0  0  0
    7.1981    0.9229    0.3532 N   0  0  0  0  0  0  0  0  0  0  0  0
    7.0808   -0.5248   -1.3713 O   0  0  0  0  0  0  0  0  0  0  0  0
    4.2467   -0.3812   -1.3942 C   0  0  0  0  0  0  0  0  0  0  0  0
    2.8542   -0.4702   -1.2716 C   0  0  0  0  0  0  0  0  0  0  0  0
   -1.9845    0.8617    0.1548 C   0  0  0  0  0  0  0  0  0  0  0  0
   -4.1988    0.2124   -1.9533 H   0  0  0  0  0  0  0  0  0  0  0  0
   -5.8830    0.7972   -1.8896 H   0  0  0  0  0  0  0  0  0  0  0  0
   -5.3693   -0.5097   -0.7890 H   0  0  0  0  0  0  0  0  0  0  0  0
   -3.0566    0.2434    2.7007 H   0  0  0  0  0  0  0  0  0  0  0  0
   -4.6743   -0.0771    2.1012 H   0  0  0  0  0  0  0  0  0  0  0  0
   -3.8675   -1.8597    0.6228 H   0  0  0  0  0  0  0  0  0  0  0  0
   -3.3320   -2.1655    2.2730 H   0  0  0  0  0  0  0  0  0  0  0  0
   -1.5073   -2.5528    0.6141 H   0  0  0  0  0  0  0  0  0  0  0  0
   -1.0952   -1.2958    1.7714 H   0  0  0  0  0  0  0  0  0  0  0  0
   -2.2124   -0.8929   -1.0492 H   0  0  0  0  0  0  0  0  0  0  0  0
    0.5330   -0.0176    1.0916 H   0  0  0  0  0  0  0  0  0  0  0  0
    2.5708    0.4371    1.9951 H   0  0  0  0  0  0  0  0  0  0  0  0
    4.9987    0.5774    1.7859 H   0  0  0  0  0  0  0  0  0  0  0  0
    6.7417    1.6642    0.8644 H   0  0  0  0  0  0  0  0  0  0  0  0
    8.1732    1.0605    0.1169 H   0  0  0  0  0  0  0  0  0  0  0  0
    4.7147   -0.6243   -2.3469 H   0  0  0  0  0  0  0  0  0  0  0  0
    2.2935   -0.7820   -2.1474 H   0  0  0  0  0  0  0  0  0  0  0  0
   -1.3079    1.2924    0.9029 H   0  0  0  0  0  0  0  0  0  0  0  0
   -1.9115    1.5134   -0.7224 H   0  0  0  0  0  0  0  0  0  0  0  0
  1  2  1  0
  2  3  2  0
  2  4  2  0
  2  5  1  0
  5  6  1  0
  6  7  1  0
  7  8  1  0
  8  9  1  0
  9 10  1  0
 10 11  2  0
 10 12  1  0
 12 13  1  0
 13 14  2  0
 14 15  1  0
 15 16  2  0
 16 17  1  0
 17 18  1  0
 17 19  2  0
 16 20  1  0
 20 21  2  0
  9 22  1  0
 22  5  1  0
 21 13  1  0
  1 23  1  0
  1 24  1  0
  1 25  1  0
  6 26  1  0
  6 27  1  0
  7 28  1  0
  7 29  1  0
  8 30  1  0
  8 31  1  0
  9 32  1  0
 12 33  1  0
 14 34  1  0
 15 35  1  0
 18 36  1  0
 18 37  1  0
 20 38  1  0
 21 39  1  0
 22 40  1  0
 22 41  1  0
M  END
$$$$
