
     RDKit          3D

 35 37  0  0  0  0  0  0  0  0999 V2000
    4.6628    0.6707   -1.3417 C   0  0  0  0  0  0  0  0  0  0  0  0
    4.0136   -0.5759   -0.8032 C   0  0  0  0  0  0  0  0  0  0  0  0
    3.9037   -1.5910   -1.4928 O   0  0  0  0  0  0  0  0  0  0  0  0
    3.5401   -0.5299    0.6417 C   0  0  0  0  0  0  0  0  0  0  0  0
    2.2353   -1.1582    0.7412 N   0  0  0  0  0  0  0  0  0  0  0  0
    2.1313   -2.5037    1.0371 C   0  0  0  0  0  0  0  0  0  0  0  0
    1.0252   -3.1649    1.1526 N   0  0  0  0  0  0  0  0  0  0  0  0
   -0.0915   -2.4267    0.9290 C   0  0  0  0  0  0  0  0  0  0  0  0
   -1.6429   -3.1160    1.0509 S   0  0  0  0  0  0  0  0  0  0  0  0
   -2.4138   -1.6433    0.6328 C   0  0  0  0  0  0  0  0  0  0  0  0
   -3.9059   -1.5977    0.5441 C   0  0  0  0  0  0  0  0  0  0  0  0
   -1.4929   -0.6276    0.4181 C   0  0  0  0  0  0  0  0  0  0  0  0
   -1.9232    0.7149    0.0558 C   0  0  0  0  0  0  0  0  0  0  0  0
   -2.4642    1.5670    1.0256 C   0  0  0  0  0  0  0  0  0  0  0  0
   -2.8889    2.8491    0.6721 C   0  0  0  0  0  0  0  0  0  0  0  0
   -2.7716    3.2839   -0.6479 C   0  0  0  0  0  0  0  0  0  0  0  0
   -2.2279    2.4397   -1.6160 C   0  0  0  0  0  0  0  0  0  0  0  0
   -1.8033    1.1565   -1.2662 C   0  0  0  0  0  0  0  0  0  0  0  0
   -0.1463   -1.0927    0.5866 C   0  0  0  0  0  0  0  0  0  0  0  0
    1.1131   -0.3816    0.4573 C   0  0  0  0  0  0  0  0  0  0  0  0
    1.1984    0.7980    0.1232 O   0  0  0  0  0  0  0  0  0  0  0  0
    3.9475    1.4961   -1.3171 H   0  0  0  0  0  0  0  0  0  0  0  0
    5.5420    0.9138   -0.7405 H   0  0  0  0  0  0  0  0  0  0  0  0
    4.9756    0.5061   -2.3764 H   0  0  0  0  0  0  0  0  0  0  0  0
    3.4801    0.5097    0.9796 H   0  0  0  0  0  0  0  0  0  0  0  0
    4.2730   -1.0592    1.2594 H   0  0  0  0  0  0  0  0  0  0  0  0
    3.0957   -3.0154    1.1876 H   0  0  0  0  0  0  0  0  0  0  0  0
   -4.3149   -0.9900    1.3579 H   0  0  0  0  0  0  0  0  0  0  0  0
   -4.2199   -1.1584   -0.4086 H   0  0  0  0  0  0  0  0  0  0  0  0
   -4.3573   -2.5932    0.6109 H   0  0  0  0  0  0  0  0  0  0  0  0
   -2.5560    1.2384    2.0579 H   0  0  0  0  0  0  0  0  0  0  0  0
   -3.3082    3.5093    1.4265 H   0  0  0  0  0  0  0  0  0  0  0  0
   -3.1002    4.2832   -0.9223 H   0  0  0  0  0  0  0  0  0  0  0  0
   -2.1309    2.7812   -2.6431 H   0  0  0  0  0  0  0  0  0  0  0  0
   -1.3775    0.5076   -2.0275 H   0  0  0  0  0  0  0  0  0  0  0  0
  1  2  1  0
  2  3  2  0
  2  4  1  0
  4  5  1  0
  5  6  1  0
  6  7  2  0
  7  8  1  0
  8  9  1  0
  9 10  1  0
 10 11  1  0
 10 12  2  0
 12 13  1  0
 13 14  2  0
 14 15  1  0
 15 16  2  0
 16 17  1  0
 17 18  2  0
 12 19  1  0
 19 20  1  0
 20 21  2  0
 20  5  1  0
 19  8  2  0
 18 13  1  0
  1 22  1  0
  1 23  1  0
  1 24  1  0
  4 25  1  0
  4 26  1  0
  6 27  1  0
 11 28  1  0
 11 29  1  0
 11 30  1  0
 14 31  1  0
 15 32  1  0
 16 33  1  0
 17 34  1  0
 18 35  1  0
M  END
$$$$
