
     RDKit          3D

 29 30  0  0  0  0  0  0  0  0999 V2000
    5.3690   -0.4027    0.2931 C   0  0  0  0  0  0  0  0  0  0  0  0
    3.8904   -0.1785    0.1770 C   0  0  0  0  0  0  0  0  0  0  0  0
    3.1433   -0.8614   -0.7887 C   0  0  0  0  0  0  0  0  0  0  0  0
    1.7598   -0.6759   -0.8773 C   0  0  0  0  0  0  0  0  0  0  0  0
    1.0959    0.1877    0.0049 C   0  0  0  0  0  0  0  0  0  0  0  0
   -0.3485    0.3870   -0.0810 C   0  0  0  0  0  0  0  0  0  0  0  0
   -1.0211    1.2436    0.7645 N   0  0  0  0  0  0  0  0  0  0  0  0
   -2.2742    1.1526    0.3942 C   0  0  0  0  0  0  0  0  0  0  0  0
   -3.3097    1.7900    0.9828 N   0  0  0  0  0  0  0  0  0  0  0  0
   -2.3543    0.2968   -0.6879 N   0  0  0  0  0  0  0  0  0  0  0  0
   -3.8517   -0.2742   -1.2857 S   0  0  0  0  0  6  0  0  0  0  0  0
   -4.3504   -1.5821   -0.1990 C   0  0  0  0  0  0  0  0  0  0  0  0
   -4.7861    0.8332   -1.1462 O   0  0  0  0  0  0  0  0  0  0  0  0
   -3.5670   -0.8425   -2.5911 O   0  0  0  0  0  0  0  0  0  0  0  0
   -1.1416   -0.2584   -0.9485 N   0  0  0  0  0  0  0  0  0  0  0  0
    1.8466    0.8591    0.9794 C   0  0  0  0  0  0  0  0  0  0  0  0
    3.2300    0.6737    1.0687 C   0  0  0  0  0  0  0  0  0  0  0  0
    5.8076   -0.6290   -0.6845 H   0  0  0  0  0  0  0  0  0  0  0  0
    5.8711    0.4927    0.6744 H   0  0  0  0  0  0  0  0  0  0  0  0
    5.5686   -1.2370    0.9725 H   0  0  0  0  0  0  0  0  0  0  0  0
    3.6318   -1.5424   -1.4823 H   0  0  0  0  0  0  0  0  0  0  0  0
    1.2043   -1.2138   -1.6433 H   0  0  0  0  0  0  0  0  0  0  0  0
   -4.1416    1.9975    0.4198 H   0  0  0  0  0  0  0  0  0  0  0  0
   -3.0546    2.5743    1.5798 H   0  0  0  0  0  0  0  0  0  0  0  0
   -3.5882   -2.3633   -0.2143 H   0  0  0  0  0  0  0  0  0  0  0  0
   -4.4735   -1.1809    0.8084 H   0  0  0  0  0  0  0  0  0  0  0  0
   -5.3008   -1.9804   -0.5601 H   0  0  0  0  0  0  0  0  0  0  0  0
    1.3578    1.5322    1.6813 H   0  0  0  0  0  0  0  0  0  0  0  0
    3.7870    1.2020    1.8394 H   0  0  0  0  0  0  0  0  0  0  0  0
  1  2  1  0
  2  3  2  0
  3  4  1  0
  4  5  2  0
  5  6  1  0
  6  7  1  0
  7  8  2  0
  8  9  1  0
  8 10  1  0
 10 11  1  0
 11 12  1  0
 11 13  2  0
 11 14  2  0
 10 15  1  0
  5 16  1  0
 16 17  2  0
 17  2  1  0
 15  6  2  0
  1 18  1  0
  1 19  1  0
  1 20  1  0
  3 21  1  0
  4 22  1  0
  9 23  1  0
  9 24  1  0
 12 25  1  0
 12 26  1  0
 12 27  1  0
 16 28  1  0
 17 29  1  0
M  END
$$$$
