
     RDKit          3D

 45 46  0  0  0  0  0  0  0  0999 V2000
   -5.0076   -1.2657   -2.5851 C   0  0  0  0  0  0  0  0  0  0  0  0
   -5.1281   -1.5279   -1.0947 C   0  0  0  0  0  0  0  0  0  0  0  0
   -4.2404   -0.6803   -0.3308 N   0  0  0  0  0  0  0  0  0  0  0  0
   -2.9147   -0.9882   -0.1331 C   0  0  0  0  0  0  0  0  0  0  0  0
   -2.4112   -2.0391   -0.5200 O   0  0  0  0  0  0  0  0  0  0  0  0
   -2.0718    0.0145    0.5954 C   0  0  0  0  0  0  0  0  0  0  0  0
   -0.8569   -0.4691    1.1139 C   0  0  0  0  0  0  0  0  0  0  0  0
    0.0199    0.3930    1.7728 C   0  0  0  0  0  0  0  0  0  0  0  0
    1.5450   -0.2337    2.4337 S   0  0  0  0  0  6  0  0  0  0  0  0
    1.9830    0.6787    3.4671 O   0  0  0  0  0  0  0  0  0  0  0  0
    1.3765   -1.6461    2.6884 O   0  0  0  0  0  0  0  0  0  0  0  0
    2.6035   -0.0509    1.1583 N   0  0  0  0  0  0  0  0  0  0  0  0
    2.3685   -0.7506   -0.1130 C   0  0  0  0  0  0  0  0  0  0  0  0
    3.6639   -0.7930   -0.9293 C   0  0  0  0  0  0  0  0  0  0  0  0
    4.7807   -1.6206   -0.3117 C   0  0  0  0  0  0  0  0  0  0  0  0
    6.0005   -0.9881   -0.9335 C   0  0  0  0  0  0  0  0  0  0  0  0
    5.6214    0.4775   -0.9496 C   0  0  0  0  0  0  0  0  0  0  0  0
    4.1939    0.5419   -1.0992 O   0  0  0  0  0  0  0  0  0  0  0  0
   -0.3147    1.7328    1.9566 C   0  0  0  0  0  0  0  0  0  0  0  0
   -1.5244    2.2196    1.4529 C   0  0  0  0  0  0  0  0  0  0  0  0
   -2.4097    1.3763    0.7623 C   0  0  0  0  0  0  0  0  0  0  0  0
   -3.6017    1.8077    0.2359 O   0  0  0  0  0  0  0  0  0  0  0  0
   -3.8814    3.2035    0.2723 C   0  0  0  0  0  0  0  0  0  0  0  0
   -5.2323   -0.2191   -2.8166 H   0  0  0  0  0  0  0  0  0  0  0  0
   -5.7056   -1.8985   -3.1415 H   0  0  0  0  0  0  0  0  0  0  0  0
   -3.9946   -1.4755   -2.9436 H   0  0  0  0  0  0  0  0  0  0  0  0
   -6.1475   -1.3193   -0.7557 H   0  0  0  0  0  0  0  0  0  0  0  0
   -4.9009   -2.5771   -0.8785 H   0  0  0  0  0  0  0  0  0  0  0  0
   -4.5476    0.2564   -0.0896 H   0  0  0  0  0  0  0  0  0  0  0  0
   -0.5991   -1.5219    0.9995 H   0  0  0  0  0  0  0  0  0  0  0  0
    3.0745    0.8527    1.0970 H   0  0  0  0  0  0  0  0  0  0  0  0
    1.6204   -0.1826   -0.6765 H   0  0  0  0  0  0  0  0  0  0  0  0
    1.9996   -1.7666    0.0558 H   0  0  0  0  0  0  0  0  0  0  0  0
    3.4390   -1.1739   -1.9335 H   0  0  0  0  0  0  0  0  0  0  0  0
    4.8210   -1.4986    0.7768 H   0  0  0  0  0  0  0  0  0  0  0  0
    4.6865   -2.6877   -0.5312 H   0  0  0  0  0  0  0  0  0  0  0  0
    6.9256   -1.1835   -0.3852 H   0  0  0  0  0  0  0  0  0  0  0  0
    6.1261   -1.3535   -1.9597 H   0  0  0  0  0  0  0  0  0  0  0  0
    5.8774    0.9630   -0.0019 H   0  0  0  0  0  0  0  0  0  0  0  0
    6.1017    1.0268   -1.7642 H   0  0  0  0  0  0  0  0  0  0  0  0
    0.3537    2.4041    2.4931 H   0  0  0  0  0  0  0  0  0  0  0  0
   -1.7464    3.2691    1.6223 H   0  0  0  0  0  0  0  0  0  0  0  0
   -3.1086    3.7771   -0.2499 H   0  0  0  0  0  0  0  0  0  0  0  0
   -4.8277    3.3662   -0.2524 H   0  0  0  0  0  0  0  0  0  0  0  0
   -4.0091    3.5505    1.3026 H   0  0  0  0  0  0  0  0  0  0  0  0
  1  2  1  0
  2  3  1  0
  3  4  1  0
  4  5  2  0
  4  6  1  0
  6  7  2  0
  7  8  1  0
  8  9  1  0
  9 10  2  0
  9 11  2  0
  9 12  1  0
 12 13  1  0
 13 14  1  0
 14 15  1  0
 15 16  1  0
 16 17  1  0
 17 18  1  0
  8 19  2  0
 19 20  1  0
 20 21  2  0
 21 22  1  0
 22 23  1  0
 21  6  1  0
 18 14  1  0
  1 24  1  0
  1 25  1  0
  1 26  1  0
  2 27  1  0
  2 28  1  0
  3 29  1  0
  7 30  1  0
 12 31  1  0
 13 32  1  0
 13 33  1  0
 14 34  1  0
 15 35  1  0
 15 36  1  0
 16 37  1  0
 16 38  1  0
 17 39  1  0
 17 40  1  0
 19 41  1  0
 20 42  1  0
 23 43  1  0
 23 44  1  0
 23 45  1  0
M  END
$$$$
