
     RDKit          3D

 47 46  0  0  0  0  0  0  0  0999 V2000
   -1.6145    0.6067   -2.3716 C   0  0  0  0  0  0  0  0  0  0  0  0
   -2.5565    0.1668   -1.2866 C   0  0  0  0  0  0  0  0  0  0  0  0
   -3.7167   -0.5435   -1.6296 C   0  0  0  0  0  0  0  0  0  0  0  0
   -4.6093   -0.9486   -0.6393 C   0  0  0  0  0  0  0  0  0  0  0  0
   -6.1740   -1.8974   -1.1200 Br  0  0  0  0  0  0  0  0  0  0  0  0
   -4.3678   -0.6507    0.7022 C   0  0  0  0  0  0  0  0  0  0  0  0
   -3.2112    0.0495    1.0715 C   0  0  0  0  0  0  0  0  0  0  0  0
   -2.9699    0.3912    2.5130 C   0  0  0  0  0  0  0  0  0  0  0  0
   -2.2945    0.4171    0.0712 C   0  0  0  0  0  0  0  0  0  0  0  0
   -1.1613    1.1035    0.4325 O   0  0  0  0  0  0  0  0  0  0  0  0
   -0.0615    0.1974    0.6130 C   0  0  0  0  0  0  0  0  0  0  0  0
    1.1200    1.0019    1.1489 C   0  0  0  0  0  0  0  0  0  0  0  0
    2.3248    0.1434    1.5439 C   0  0  0  0  0  0  0  0  0  0  0  0
    2.8668   -0.7771    0.4396 C   0  0  0  0  0  0  0  0  0  0  0  0
    3.1594   -0.0940   -0.8295 N   0  0  0  0  0  0  0  0  0  0  0  0
    3.4450   -1.0799   -1.8765 C   0  0  0  0  0  0  0  0  0  0  0  0
    4.2881    0.8326   -0.7055 C   0  0  0  0  0  0  0  0  0  0  0  0
   -1.0196    0.3253   -1.4272 O   0  0  0  0  0  0  0  0  0  0  0  0
   -0.7207    0.1360   -0.2644 C   0  0  0  0  0  0  0  0  0  0  0  0
   -1.6378    0.1445    0.7127 O   0  0  0  0  0  0  0  0  0  0  0  0
    0.7205   -0.1369    0.2646 C   0  0  0  0  0  0  0  0  0  0  0  0
    1.0197   -0.3249    1.4275 O   0  0  0  0  0  0  0  0  0  0  0  0
    1.6372   -0.1462   -0.7129 O   0  0  0  0  0  0  0  0  0  0  0  0
   -2.1445    0.7314   -3.3229 H   0  0  0  0  0  0  0  0  0  0  0  0
   -1.1602    1.5742   -2.1338 H   0  0  0  0  0  0  0  0  0  0  0  0
   -0.8253   -0.1391   -2.5126 H   0  0  0  0  0  0  0  0  0  0  0  0
   -3.9254   -0.7702   -2.6717 H   0  0  0  0  0  0  0  0  0  0  0  0
   -5.0838   -0.9570    1.4628 H   0  0  0  0  0  0  0  0  0  0  0  0
   -2.8050    1.4658    2.6296 H   0  0  0  0  0  0  0  0  0  0  0  0
   -3.8293    0.1256    3.1348 H   0  0  0  0  0  0  0  0  0  0  0  0
   -2.1033   -0.1532    2.8981 H   0  0  0  0  0  0  0  0  0  0  0  0
    0.1994   -0.2647   -0.3439 H   0  0  0  0  0  0  0  0  0  0  0  0
   -0.3266   -0.5907    1.3292 H   0  0  0  0  0  0  0  0  0  0  0  0
    0.7940    1.5742    2.0275 H   0  0  0  0  0  0  0  0  0  0  0  0
    1.4116    1.7563    0.4068 H   0  0  0  0  0  0  0  0  0  0  0  0
    3.1229    0.8028    1.9060 H   0  0  0  0  0  0  0  0  0  0  0  0
    2.0439   -0.4835    2.4005 H   0  0  0  0  0  0  0  0  0  0  0  0
    3.7592   -1.2958    0.8143 H   0  0  0  0  0  0  0  0  0  0  0  0
    2.1148   -1.5576    0.2630 H   0  0  0  0  0  0  0  0  0  0  0  0
    4.3200   -1.6950   -1.6374 H   0  0  0  0  0  0  0  0  0  0  0  0
    3.6237   -0.5839   -2.8368 H   0  0  0  0  0  0  0  0  0  0  0  0
    2.5852   -1.7432   -2.0259 H   0  0  0  0  0  0  0  0  0  0  0  0
    4.5053    1.3022   -1.6720 H   0  0  0  0  0  0  0  0  0  0  0  0
    4.0575    1.6510   -0.0165 H   0  0  0  0  0  0  0  0  0  0  0  0
    5.1990    0.3315   -0.3589 H   0  0  0  0  0  0  0  0  0  0  0  0
   -2.4827    0.3256    0.2541 H   0  0  0  0  0  0  0  0  0  0  0  0
    2.4832   -0.3234   -0.2544 H   0  0  0  0  0  0  0  0  0  0  0  0
  1  2  1  0
  2  3  2  0
  3  4  1  0
  4  5  1  0
  4  6  2  0
  6  7  1  0
  7  8  1  0
  7  9  2  0
  9 10  1  0
 10 11  1  0
 11 12  1  0
 12 13  1  0
 13 14  1  0
 14 15  1  0
 15 16  1  0
 15 17  1  0
 18 19  2  0
 19 20  1  0
 19 21  1  0
 21 22  2  0
 21 23  1  0
  9  2  1  0
  1 24  1  0
  1 25  1  0
  1 26  1  0
  3 27  1  0
  6 28  1  0
  8 29  1  0
  8 30  1  0
  8 31  1  0
 11 32  1  0
 11 33  1  0
 12 34  1  0
 12 35  1  0
 13 36  1  0
 13 37  1  0
 14 38  1  0
 14 39  1  0
 16 40  1  0
 16 41  1  0
 16 42  1  0
 17 43  1  0
 17 44  1  0
 17 45  1  0
 20 46  1  0
 23 47  1  0
M  END
$$$$
