
     RDKit          3D

 28 29  0  0  0  0  0  0  0  0999 V2000
   -0.4891    1.3867    1.2108 O   0  0  0  0  0  0  0  0  0  0  0  0
   -0.1860    0.4944    0.4311 C   0  0  0  0  0  0  0  0  0  0  0  0
    1.1227    0.2288    0.0841 N   0  0  0  0  0  0  0  0  0  0  0  0
    2.1778    0.9736    0.7341 C   0  0  0  0  0  0  0  0  0  0  0  0
    3.4718    0.6151    0.0791 C   0  0  0  0  0  0  0  0  0  0  0  0
    4.0681    1.2082   -1.0171 C   0  0  0  0  0  0  0  0  0  0  0  0
    5.3056    0.5921   -1.3615 C   0  0  0  0  0  0  0  0  0  0  0  0
    5.6129   -0.4522   -0.5187 C   0  0  0  0  0  0  0  0  0  0  0  0
    4.4138   -0.6866    0.6773 S   0  0  0  0  0  0  0  0  0  0  0  0
   -1.0433   -0.3563   -0.2312 N   0  0  0  0  0  0  0  0  0  0  0  0
   -2.4411   -0.4503   -0.0896 C   0  0  0  0  0  0  0  0  0  0  0  0
   -3.1703    0.2255    0.8921 C   0  0  0  0  0  0  0  0  0  0  0  0
   -4.5593    0.0741    0.9753 C   0  0  0  0  0  0  0  0  0  0  0  0
   -5.2229   -0.7577    0.0783 C   0  0  0  0  0  0  0  0  0  0  0  0
   -6.9295   -0.9442    0.1816 Cl  0  0  0  0  0  0  0  0  0  0  0  0
   -4.5092   -1.4420   -0.9012 C   0  0  0  0  0  0  0  0  0  0  0  0
   -3.1215   -1.2893   -0.9827 C   0  0  0  0  0  0  0  0  0  0  0  0
    1.3277   -0.7448   -0.0831 H   0  0  0  0  0  0  0  0  0  0  0  0
    1.9738    2.0459    0.6345 H   0  0  0  0  0  0  0  0  0  0  0  0
    2.1731    0.7292    1.8025 H   0  0  0  0  0  0  0  0  0  0  0  0
    3.6338    2.0476   -1.5479 H   0  0  0  0  0  0  0  0  0  0  0  0
    5.9385    0.9001   -2.1848 H   0  0  0  0  0  0  0  0  0  0  0  0
    6.4855   -1.0905   -0.5460 H   0  0  0  0  0  0  0  0  0  0  0  0
   -0.6287   -0.8669   -0.9965 H   0  0  0  0  0  0  0  0  0  0  0  0
   -2.6865    0.8772    1.6137 H   0  0  0  0  0  0  0  0  0  0  0  0
   -5.1103    0.6094    1.7441 H   0  0  0  0  0  0  0  0  0  0  0  0
   -5.0232   -2.0937   -1.6025 H   0  0  0  0  0  0  0  0  0  0  0  0
   -2.5841   -1.8333   -1.7552 H   0  0  0  0  0  0  0  0  0  0  0  0
  1  2  2  0
  2  3  1  0
  3  4  1  0
  4  5  1  0
  5  6  2  0
  6  7  1  0
  7  8  2  0
  8  9  1  0
  2 10  1  0
 10 11  1  0
 11 12  2  0
 12 13  1  0
 13 14  2  0
 14 15  1  0
 14 16  1  0
 16 17  2  0
  9  5  1  0
 17 11  1  0
  3 18  1  0
  4 19  1  0
  4 20  1  0
  6 21  1  0
  7 22  1  0
  8 23  1  0
 10 24  1  0
 12 25  1  0
 13 26  1  0
 16 27  1  0
 17 28  1  0
M  END
$$$$
