
     RDKit          3D

 41 41  0  0  0  0  0  0  0  0999 V2000
    5.4004    1.4073   -1.8870 C   0  0  0  0  0  0  0  0  0  0  0  0
    4.3691    0.6193   -1.1363 C   0  0  0  0  0  0  0  0  0  0  0  0
    3.0083    0.8694   -1.3257 C   0  0  0  0  0  0  0  0  0  0  0  0
    2.0436    0.1142   -0.6510 C   0  0  0  0  0  0  0  0  0  0  0  0
    2.4238   -0.9132    0.2153 C   0  0  0  0  0  0  0  0  0  0  0  0
    1.5636   -1.7071    0.9272 O   0  0  0  0  0  0  0  0  0  0  0  0
    0.1588   -1.5878    0.6985 C   0  0  0  0  0  0  0  0  0  0  0  0
   -0.4436   -0.5323    1.6268 C   0  0  0  0  0  0  0  0  0  0  0  0
   -1.9629   -0.4513    1.5184 C   0  0  0  0  0  0  0  0  0  0  0  0
   -2.4391    0.1640    0.2159 C   0  0  0  0  0  0  0  0  0  0  0  0
   -1.6847    0.6026   -0.6441 O   0  0  0  0  0  0  0  0  0  0  0  0
   -3.8144    0.1721    0.1029 N   0  0  0  0  0  0  0  0  0  0  0  0
   -4.4849    0.8144   -1.0194 C   0  0  0  0  0  0  0  0  0  0  0  0
   -4.5931    2.3203   -0.7908 C   0  0  0  0  0  0  0  0  0  0  0  0
   -5.8643    0.1976   -1.2260 C   0  0  0  0  0  0  0  0  0  0  0  0
    3.7918   -1.1799    0.4070 C   0  0  0  0  0  0  0  0  0  0  0  0
    4.2371   -2.2800    1.3310 C   0  0  0  0  0  0  0  0  0  0  0  0
    4.7522   -0.4157   -0.2767 C   0  0  0  0  0  0  0  0  0  0  0  0
    5.6285    0.9153   -2.8375 H   0  0  0  0  0  0  0  0  0  0  0  0
    5.0449    2.4229   -2.0908 H   0  0  0  0  0  0  0  0  0  0  0  0
    6.3231    1.4979   -1.3043 H   0  0  0  0  0  0  0  0  0  0  0  0
    2.6820    1.6584   -1.9998 H   0  0  0  0  0  0  0  0  0  0  0  0
    1.0020    0.3648   -0.8264 H   0  0  0  0  0  0  0  0  0  0  0  0
   -0.0767   -1.4371   -0.3600 H   0  0  0  0  0  0  0  0  0  0  0  0
   -0.2708   -2.5634    0.9563 H   0  0  0  0  0  0  0  0  0  0  0  0
   -0.1715   -0.7821    2.6602 H   0  0  0  0  0  0  0  0  0  0  0  0
    0.0068    0.4483    1.4344 H   0  0  0  0  0  0  0  0  0  0  0  0
   -2.4058   -1.4482    1.6248 H   0  0  0  0  0  0  0  0  0  0  0  0
   -2.3419    0.1754    2.3347 H   0  0  0  0  0  0  0  0  0  0  0  0
   -4.3603   -0.0200    0.9333 H   0  0  0  0  0  0  0  0  0  0  0  0
   -3.8837    0.6408   -1.9199 H   0  0  0  0  0  0  0  0  0  0  0  0
   -5.1652    2.5428    0.1169 H   0  0  0  0  0  0  0  0  0  0  0  0
   -3.6027    2.7730   -0.6738 H   0  0  0  0  0  0  0  0  0  0  0  0
   -5.0888    2.8090   -1.6360 H   0  0  0  0  0  0  0  0  0  0  0  0
   -5.7835   -0.8802   -1.4045 H   0  0  0  0  0  0  0  0  0  0  0  0
   -6.5002    0.3388   -0.3448 H   0  0  0  0  0  0  0  0  0  0  0  0
   -6.3692    0.6470   -2.0874 H   0  0  0  0  0  0  0  0  0  0  0  0
    5.3291   -2.3502    1.3766 H   0  0  0  0  0  0  0  0  0  0  0  0
    3.8755   -2.0918    2.3471 H   0  0  0  0  0  0  0  0  0  0  0  0
    3.8569   -3.2454    0.9815 H   0  0  0  0  0  0  0  0  0  0  0  0
    5.8098   -0.6299   -0.1358 H   0  0  0  0  0  0  0  0  0  0  0  0
  1  2  1  0
  2  3  2  0
  3  4  1  0
  4  5  2  0
  5  6  1  0
  6  7  1  0
  7  8  1  0
  8  9  1  0
  9 10  1  0
 10 11  2  0
 10 12  1  0
 12 13  1  0
 13 14  1  0
 13 15  1  0
  5 16  1  0
 16 17  1  0
 16 18  2  0
 18  2  1  0
  1 19  1  0
  1 20  1  0
  1 21  1  0
  3 22  1  0
  4 23  1  0
  7 24  1  0
  7 25  1  0
  8 26  1  0
  8 27  1  0
  9 28  1  0
  9 29  1  0
 12 30  1  0
 13 31  1  0
 14 32  1  0
 14 33  1  0
 14 34  1  0
 15 35  1  0
 15 36  1  0
 15 37  1  0
 17 38  1  0
 17 39  1  0
 17 40  1  0
 18 41  1  0
M  END
$$$$
