
     RDKit          3D

 57 60  0  0  0  0  0  0  0  0999 V2000
    9.1021    1.4162   -1.6053 C   0  0  0  0  0  0  0  0  0  0  0  0
    7.9511    0.7089   -0.9647 C   0  0  0  0  0  0  0  0  0  0  0  0
    8.0923   -0.1311    0.0684 C   0  0  0  0  0  0  0  0  0  0  0  0
    6.9004   -0.7874    0.6427 C   0  0  0  0  0  0  0  0  0  0  0  0
    7.0271   -1.5507    1.5937 O   0  0  0  0  0  0  0  0  0  0  0  0
    5.5781   -0.4711    0.0175 C   0  0  0  0  0  0  0  0  0  0  0  0
    4.4685   -1.0892    0.5539 O   0  0  0  0  0  0  0  0  0  0  0  0
    3.1999   -0.7757   -0.0045 C   0  0  0  0  0  0  0  0  0  0  0  0
    2.0600   -1.5452    0.6785 C   0  0  0  0  0  0  0  0  0  0  0  0
    2.2756   -2.4472    1.4889 O   0  0  0  0  0  0  0  0  0  0  0  0
    0.7628   -1.1759    0.3350 N   0  0  0  0  0  0  0  0  0  0  0  0
    0.4007   -0.1266   -0.6208 C   0  0  0  0  0  0  0  0  0  0  0  0
   -0.9493   -0.3904   -1.3216 C   0  0  0  0  0  0  0  0  0  0  0  0
   -2.0567   -0.7848   -0.4403 N   0  0  0  0  0  0  0  0  0  0  0  0
   -3.3239   -0.0519   -0.6630 C   0  0  0  0  0  0  0  0  0  0  0  0
   -3.3065    1.3699   -0.0811 C   0  0  0  0  0  0  0  0  0  0  0  0
   -3.5645    1.6201    1.2790 C   0  0  0  0  0  0  0  0  0  0  0  0
   -3.5341    2.9195    1.7885 C   0  0  0  0  0  0  0  0  0  0  0  0
   -3.2481    3.9917    0.9475 C   0  0  0  0  0  0  0  0  0  0  0  0
   -2.9956    3.7666   -0.4034 C   0  0  0  0  0  0  0  0  0  0  0  0
   -3.0252    2.4671   -0.9143 C   0  0  0  0  0  0  0  0  0  0  0  0
   -4.5852   -0.8791   -0.3367 C   0  0  0  0  0  0  0  0  0  0  0  0
   -4.5482   -2.2856   -0.2882 C   0  0  0  0  0  0  0  0  0  0  0  0
   -5.7023   -3.0352   -0.0441 C   0  0  0  0  0  0  0  0  0  0  0  0
   -6.9256   -2.3960    0.1312 C   0  0  0  0  0  0  0  0  0  0  0  0
   -6.9975   -1.0092    0.0478 C   0  0  0  0  0  0  0  0  0  0  0  0
   -5.8427   -0.2602   -0.1967 C   0  0  0  0  0  0  0  0  0  0  0  0
   -1.6508   -1.0032    0.9531 C   0  0  0  0  0  0  0  0  0  0  0  0
   -0.3499   -1.8218    1.0366 C   0  0  0  0  0  0  0  0  0  0  0  0
    5.6009    0.3918   -1.0121 C   0  0  0  0  0  0  0  0  0  0  0  0
    6.7220    0.9965   -1.5309 O   0  0  0  0  0  0  0  0  0  0  0  0
   10.0549    1.1691   -1.1259 H   0  0  0  0  0  0  0  0  0  0  0  0
    9.1747    1.1397   -2.6619 H   0  0  0  0  0  0  0  0  0  0  0  0
    8.9634    2.5001   -1.5401 H   0  0  0  0  0  0  0  0  0  0  0  0
    9.0446   -0.3671    0.5243 H   0  0  0  0  0  0  0  0  0  0  0  0
    3.0081    0.2960    0.1214 H   0  0  0  0  0  0  0  0  0  0  0  0
    3.1889   -1.0553   -1.0643 H   0  0  0  0  0  0  0  0  0  0  0  0
    1.1822   -0.0152   -1.3774 H   0  0  0  0  0  0  0  0  0  0  0  0
    0.3519    0.8128   -0.0568 H   0  0  0  0  0  0  0  0  0  0  0  0
   -1.1896    0.4850   -1.9342 H   0  0  0  0  0  0  0  0  0  0  0  0
   -0.8046   -1.2179   -2.0278 H   0  0  0  0  0  0  0  0  0  0  0  0
   -3.4253    0.0605   -1.7540 H   0  0  0  0  0  0  0  0  0  0  0  0
   -3.7989    0.7972    1.9520 H   0  0  0  0  0  0  0  0  0  0  0  0
   -3.7370    3.0934    2.8423 H   0  0  0  0  0  0  0  0  0  0  0  0
   -3.2267    5.0031    1.3448 H   0  0  0  0  0  0  0  0  0  0  0  0
   -2.7792    4.6045   -1.0612 H   0  0  0  0  0  0  0  0  0  0  0  0
   -2.8334    2.3174   -1.9745 H   0  0  0  0  0  0  0  0  0  0  0  0
   -3.6121   -2.8174   -0.4470 H   0  0  0  0  0  0  0  0  0  0  0  0
   -5.6436   -4.1197    0.0002 H   0  0  0  0  0  0  0  0  0  0  0  0
   -7.8233   -2.9787    0.3186 H   0  0  0  0  0  0  0  0  0  0  0  0
   -7.9540   -0.5065    0.1650 H   0  0  0  0  0  0  0  0  0  0  0  0
   -5.9415    0.8205   -0.2802 H   0  0  0  0  0  0  0  0  0  0  0  0
   -2.4299   -1.5372    1.5070 H   0  0  0  0  0  0  0  0  0  0  0  0
   -1.4737   -0.0512    1.4656 H   0  0  0  0  0  0  0  0  0  0  0  0
   -0.0780   -1.9744    2.0873 H   0  0  0  0  0  0  0  0  0  0  0  0
   -0.4892   -2.8111    0.5839 H   0  0  0  0  0  0  0  0  0  0  0  0
    4.7359    0.7219   -1.5684 H   0  0  0  0  0  0  0  0  0  0  0  0
  1  2  1  0
  2  3  2  0
  3  4  1  0
  4  5  2  0
  4  6  1  0
  6  7  1  0
  7  8  1  0
  8  9  1  0
  9 10  2  0
  9 11  1  0
 11 12  1  0
 12 13  1  0
 13 14  1  0
 14 15  1  0
 15 16  1  0
 16 17  2  0
 17 18  1  0
 18 19  2  0
 19 20  1  0
 20 21  2  0
 15 22  1  0
 22 23  2  0
 23 24  1  0
 24 25  2  0
 25 26  1  0
 26 27  2  0
 14 28  1  0
 28 29  1  0
  6 30  2  0
 30 31  1  0
 31  2  1  0
 29 11  1  0
 21 16  1  0
 27 22  1  0
  1 32  1  0
  1 33  1  0
  1 34  1  0
  3 35  1  0
  8 36  1  0
  8 37  1  0
 12 38  1  0
 12 39  1  0
 13 40  1  0
 13 41  1  0
 15 42  1  0
 17 43  1  0
 18 44  1  0
 19 45  1  0
 20 46  1  0
 21 47  1  0
 23 48  1  0
 24 49  1  0
 25 50  1  0
 26 51  1  0
 27 52  1  0
 28 53  1  0
 28 54  1  0
 29 55  1  0
 29 56  1  0
 30 57  1  0
M  END
$$$$
