
     RDKit          3D

 37 38  0  0  0  0  0  0  0  0999 V2000
   -4.8812    0.3859    0.6861 C   0  0  0  0  0  0  0  0  0  0  0  0
   -3.5006   -0.1086    0.2602 C   0  0  0  0  0  0  0  0  0  0  0  0
   -3.4034   -0.1929   -1.2681 C   0  0  0  0  0  0  0  0  0  0  0  0
   -2.0004   -0.6119   -1.6977 C   0  0  0  0  0  0  0  0  0  0  0  0
   -0.9419    0.3073   -1.0963 C   0  0  0  0  0  0  0  0  0  0  0  0
   -1.0639    0.2949    0.3899 N   0  0  0  0  0  0  0  0  0  0  0  0
    0.2296    1.0490    1.2208 S   0  0  0  0  0  6  0  0  0  0  0  0
   -0.0069    0.9442    2.6440 O   0  0  0  0  0  0  0  0  0  0  0  0
    0.4704    2.3293    0.5898 O   0  0  0  0  0  0  0  0  0  0  0  0
    1.6020   -0.0184    0.8541 C   0  0  0  0  0  0  0  0  0  0  0  0
    1.5882   -1.3285    1.3398 C   0  0  0  0  0  0  0  0  0  0  0  0
    2.6610   -2.1769    1.0587 C   0  0  0  0  0  0  0  0  0  0  0  0
    3.7450   -1.7202    0.2977 C   0  0  0  0  0  0  0  0  0  0  0  0
    5.0525   -2.8185    0.0433 Cl  0  0  0  0  0  0  0  0  0  0  0  0
    3.7537   -0.4018   -0.1778 C   0  0  0  0  0  0  0  0  0  0  0  0
    4.8572    0.1165   -1.0134 C   0  0  0  0  0  0  0  0  0  0  0  0
    5.4103    1.2993   -0.6082 N   0  0  0  0  0  0  0  0  0  0  0  0
    5.2363   -0.4622   -2.0199 O   0  0  0  0  0  0  0  0  0  0  0  0
    2.6793    0.4562    0.1022 C   0  0  0  0  0  0  0  0  0  0  0  0
   -2.4001    0.8013    0.8232 C   0  0  0  0  0  0  0  0  0  0  0  0
   -5.0774    1.3947    0.3073 H   0  0  0  0  0  0  0  0  0  0  0  0
   -4.9645    0.4120    1.7776 H   0  0  0  0  0  0  0  0  0  0  0  0
   -5.6654   -0.2773    0.3060 H   0  0  0  0  0  0  0  0  0  0  0  0
   -3.3592   -1.1186    0.6685 H   0  0  0  0  0  0  0  0  0  0  0  0
   -3.6446    0.7801   -1.7149 H   0  0  0  0  0  0  0  0  0  0  0  0
   -4.1348   -0.9125   -1.6543 H   0  0  0  0  0  0  0  0  0  0  0  0
   -1.9284   -0.5950   -2.7909 H   0  0  0  0  0  0  0  0  0  0  0  0
   -1.8160   -1.6448   -1.3768 H   0  0  0  0  0  0  0  0  0  0  0  0
    0.0422   -0.0587   -1.4028 H   0  0  0  0  0  0  0  0  0  0  0  0
   -1.0639    1.3278   -1.4776 H   0  0  0  0  0  0  0  0  0  0  0  0
    0.7495   -1.6884    1.9337 H   0  0  0  0  0  0  0  0  0  0  0  0
    2.6504   -3.1956    1.4416 H   0  0  0  0  0  0  0  0  0  0  0  0
    6.2214    1.6218   -1.1216 H   0  0  0  0  0  0  0  0  0  0  0  0
    5.2269    1.7129    0.2957 H   0  0  0  0  0  0  0  0  0  0  0  0
    2.6763    1.4737   -0.2840 H   0  0  0  0  0  0  0  0  0  0  0  0
   -2.4649    0.7886    1.9168 H   0  0  0  0  0  0  0  0  0  0  0  0
   -2.5347    1.8355    0.4831 H   0  0  0  0  0  0  0  0  0  0  0  0
  1  2  1  0
  2  3  1  0
  3  4  1  0
  4  5  1  0
  5  6  1  0
  6  7  1  0
  7  8  2  0
  7  9  2  0
  7 10  1  0
 10 11  2  0
 11 12  1  0
 12 13  2  0
 13 14  1  0
 13 15  1  0
 15 16  1  0
 16 17  1  0
 16 18  2  0
 15 19  2  0
  6 20  1  0
 20  2  1  0
 19 10  1  0
  1 21  1  0
  1 22  1  0
  1 23  1  0
  2 24  1  0
  3 25  1  0
  3 26  1  0
  4 27  1  0
  4 28  1  0
  5 29  1  0
  5 30  1  0
 11 31  1  0
 12 32  1  0
 17 33  1  0
 17 34  1  0
 19 35  1  0
 20 36  1  0
 20 37  1  0
M  END
$$$$
