
     RDKit          3D

 42 44  0  0  0  0  0  0  0  0999 V2000
   -7.6294   -0.5919    1.5933 C   0  0  0  0  0  0  0  0  0  0  0  0
   -6.5169   -1.3498    1.1361 O   0  0  0  0  0  0  0  0  0  0  0  0
   -5.5275   -0.6653    0.4857 C   0  0  0  0  0  0  0  0  0  0  0  0
   -5.4984    0.7091    0.2488 C   0  0  0  0  0  0  0  0  0  0  0  0
   -4.4187    1.2848   -0.4317 C   0  0  0  0  0  0  0  0  0  0  0  0
   -3.3577    0.4927   -0.8894 C   0  0  0  0  0  0  0  0  0  0  0  0
   -2.1819    1.1079   -1.6025 C   0  0  0  0  0  0  0  0  0  0  0  0
   -1.0771    1.2946   -0.6908 N   0  0  0  0  0  0  0  0  0  0  0  0
    0.0274    0.4745   -0.7011 C   0  0  0  0  0  0  0  0  0  0  0  0
    0.1804   -0.4493   -1.4933 O   0  0  0  0  0  0  0  0  0  0  0  0
    1.0094    0.7829    0.4117 C   0  0  0  0  0  0  0  0  0  0  0  0
    2.3802    0.1835    0.1028 C   0  0  0  0  0  0  0  0  0  0  0  0
    3.3589    0.0908    1.6420 S   0  0  0  0  0  0  0  0  0  0  0  0
    4.8970   -0.4454    0.9182 C   0  0  0  0  0  0  0  0  0  0  0  0
    5.7896   -1.1836    1.7028 C   0  0  0  0  0  0  0  0  0  0  0  0
    7.0328   -1.5600    1.1916 C   0  0  0  0  0  0  0  0  0  0  0  0
    7.3973   -1.1860   -0.1002 C   0  0  0  0  0  0  0  0  0  0  0  0
    6.5179   -0.4391   -0.8858 C   0  0  0  0  0  0  0  0  0  0  0  0
    5.2625   -0.0793   -0.3862 C   0  0  0  0  0  0  0  0  0  0  0  0
    4.4273    0.6988   -1.2034 N   0  0  0  0  0  0  0  0  0  0  0  0
    3.1190    1.0183   -0.9431 C   0  0  0  0  0  0  0  0  0  0  0  0
    2.5728    1.8943   -1.6157 O   0  0  0  0  0  0  0  0  0  0  0  0
   -3.3893   -0.8851   -0.6415 C   0  0  0  0  0  0  0  0  0  0  0  0
   -4.4672   -1.4561    0.0384 C   0  0  0  0  0  0  0  0  0  0  0  0
   -7.3226    0.1484    2.3395 H   0  0  0  0  0  0  0  0  0  0  0  0
   -8.1549   -0.1177    0.7578 H   0  0  0  0  0  0  0  0  0  0  0  0
   -8.3278   -1.2817    2.0769 H   0  0  0  0  0  0  0  0  0  0  0  0
   -6.2980    1.3626    0.5806 H   0  0  0  0  0  0  0  0  0  0  0  0
   -4.4154    2.3591   -0.6030 H   0  0  0  0  0  0  0  0  0  0  0  0
   -1.8889    0.4866   -2.4561 H   0  0  0  0  0  0  0  0  0  0  0  0
   -2.4468    2.0952   -1.9967 H   0  0  0  0  0  0  0  0  0  0  0  0
   -1.1969    1.9573    0.0626 H   0  0  0  0  0  0  0  0  0  0  0  0
    0.5810    0.3432    1.3216 H   0  0  0  0  0  0  0  0  0  0  0  0
    1.0716    1.8690    0.5538 H   0  0  0  0  0  0  0  0  0  0  0  0
    2.2842   -0.8361   -0.2887 H   0  0  0  0  0  0  0  0  0  0  0  0
    5.5267   -1.4651    2.7202 H   0  0  0  0  0  0  0  0  0  0  0  0
    7.7200   -2.1364    1.8064 H   0  0  0  0  0  0  0  0  0  0  0  0
    8.3692   -1.4727   -0.4947 H   0  0  0  0  0  0  0  0  0  0  0  0
    6.8210   -0.1526   -1.8895 H   0  0  0  0  0  0  0  0  0  0  0  0
    4.8185    1.1476   -2.0219 H   0  0  0  0  0  0  0  0  0  0  0  0
   -2.5702   -1.5200   -0.9761 H   0  0  0  0  0  0  0  0  0  0  0  0
   -4.4791   -2.5278    0.2217 H   0  0  0  0  0  0  0  0  0  0  0  0
  1  2  1  0
  2  3  1  0
  3  4  2  0
  4  5  1  0
  5  6  2  0
  6  7  1  0
  7  8  1  0
  8  9  1  0
  9 10  2  0
  9 11  1  0
 11 12  1  0
 12 13  1  0
 13 14  1  0
 14 15  2  0
 15 16  1  0
 16 17  2  0
 17 18  1  0
 18 19  2  0
 19 20  1  0
 20 21  1  0
 21 22  2  0
  6 23  1  0
 23 24  2  0
 24  3  1  0
 21 12  1  0
 19 14  1  0
  1 25  1  0
  1 26  1  0
  1 27  1  0
  4 28  1  0
  5 29  1  0
  7 30  1  0
  7 31  1  0
  8 32  1  0
 11 33  1  0
 11 34  1  0
 12 35  1  0
 15 36  1  0
 16 37  1  0
 17 38  1  0
 18 39  1  0
 20 40  1  0
 23 41  1  0
 24 42  1  0
M  END
$$$$
