
     RDKit          3D

 39 40  0  0  0  0  0  0  0  0999 V2000
   -5.5995    1.7732    0.7402 C   0  0  0  0  0  0  0  0  0  0  0  0
   -5.5195    0.3951    1.3825 C   0  0  0  0  0  0  0  0  0  0  0  0
   -4.8879   -0.6246    0.4636 C   0  0  0  0  0  0  0  0  0  0  0  0
   -5.6142   -1.6226   -0.0623 C   0  0  0  0  0  0  0  0  0  0  0  0
   -4.9394   -2.5887   -0.9425 C   0  0  0  0  0  0  0  0  0  0  0  0
   -5.5450   -3.5223   -1.4526 O   0  0  0  0  0  0  0  0  0  0  0  0
   -3.6130   -2.3641   -1.1367 N   0  0  0  0  0  0  0  0  0  0  0  0
   -2.9757   -1.3222   -0.5465 C   0  0  0  0  0  0  0  0  0  0  0  0
   -1.2876   -1.2658   -0.9410 S   0  0  0  0  0  0  0  0  0  0  0  0
   -0.9211    0.4471   -0.4503 C   0  0  0  0  0  0  0  0  0  0  0  0
    0.5243    0.7960   -0.7699 C   0  0  0  0  0  0  0  0  0  0  0  0
    0.7916    1.7353   -1.5143 O   0  0  0  0  0  0  0  0  0  0  0  0
    1.4356   -0.0088   -0.1034 N   0  0  0  0  0  0  0  0  0  0  0  0
    2.8414    0.0718   -0.1297 C   0  0  0  0  0  0  0  0  0  0  0  0
    3.5561    1.0595   -0.8076 C   0  0  0  0  0  0  0  0  0  0  0  0
    4.9586    1.0736   -0.7830 C   0  0  0  0  0  0  0  0  0  0  0  0
    5.6614    0.0991   -0.0776 C   0  0  0  0  0  0  0  0  0  0  0  0
    7.0207    0.0002    0.0260 O   0  0  0  0  0  0  0  0  0  0  0  0
    7.7888    0.9816   -0.6593 C   0  0  0  0  0  0  0  0  0  0  0  0
    4.9490   -0.8880    0.6031 C   0  0  0  0  0  0  0  0  0  0  0  0
    3.5509   -0.9032    0.5791 C   0  0  0  0  0  0  0  0  0  0  0  0
   -3.5391   -0.4646    0.2343 N   0  0  0  0  0  0  0  0  0  0  0  0
   -4.6041    2.1594    0.4964 H   0  0  0  0  0  0  0  0  0  0  0  0
   -6.0753    2.4814    1.4262 H   0  0  0  0  0  0  0  0  0  0  0  0
   -6.1905    1.7457   -0.1815 H   0  0  0  0  0  0  0  0  0  0  0  0
   -6.5297    0.0816    1.6732 H   0  0  0  0  0  0  0  0  0  0  0  0
   -4.9365    0.4558    2.3096 H   0  0  0  0  0  0  0  0  0  0  0  0
   -6.6714   -1.7632    0.1161 H   0  0  0  0  0  0  0  0  0  0  0  0
   -3.1039   -2.9960   -1.7339 H   0  0  0  0  0  0  0  0  0  0  0  0
   -1.5741    1.1345   -0.9981 H   0  0  0  0  0  0  0  0  0  0  0  0
   -1.0814    0.5865    0.6239 H   0  0  0  0  0  0  0  0  0  0  0  0
    1.0425   -0.7883    0.4118 H   0  0  0  0  0  0  0  0  0  0  0  0
    3.0548    1.8418   -1.3690 H   0  0  0  0  0  0  0  0  0  0  0  0
    5.4641    1.8639   -1.3281 H   0  0  0  0  0  0  0  0  0  0  0  0
    8.8461    0.7623   -0.4817 H   0  0  0  0  0  0  0  0  0  0  0  0
    7.5868    1.9845   -0.2687 H   0  0  0  0  0  0  0  0  0  0  0  0
    7.6161    0.9349   -1.7396 H   0  0  0  0  0  0  0  0  0  0  0  0
    5.4870   -1.6532    1.1574 H   0  0  0  0  0  0  0  0  0  0  0  0
    3.0332   -1.6893    1.1218 H   0  0  0  0  0  0  0  0  0  0  0  0
  1  2  1  0
  2  3  1  0
  3  4  2  0
  4  5  1  0
  5  6  2  0
  5  7  1  0
  7  8  1  0
  8  9  1  0
  9 10  1  0
 10 11  1  0
 11 12  2  0
 11 13  1  0
 13 14  1  0
 14 15  2  0
 15 16  1  0
 16 17  2  0
 17 18  1  0
 18 19  1  0
 17 20  1  0
 20 21  2  0
  8 22  2  0
 22  3  1  0
 21 14  1  0
  1 23  1  0
  1 24  1  0
  1 25  1  0
  2 26  1  0
  2 27  1  0
  4 28  1  0
  7 29  1  0
 10 30  1  0
 10 31  1  0
 13 32  1  0
 15 33  1  0
 16 34  1  0
 19 35  1  0
 19 36  1  0
 19 37  1  0
 20 38  1  0
 21 39  1  0
M  END
$$$$
