
     RDKit          3D

 40 43  0  0  0  0  0  0  0  0999 V2000
   -4.7811    1.4376    0.6276 C   0  0  0  0  0  0  0  0  0  0  0  0
   -4.2211    0.1999   -0.1091 C   0  0  0  0  0  0  0  0  0  0  0  0
   -4.8933   -1.0806    0.4354 C   0  0  0  0  0  0  0  0  0  0  0  0
   -4.6823    0.3330   -1.5845 C   0  0  0  0  0  0  0  0  0  0  0  0
   -2.7229    0.1195    0.0695 N   0  0  0  0  0  0  0  0  0  0  0  0
   -1.8675    0.1653   -1.0296 C   0  0  0  0  0  0  0  0  0  0  0  0
   -0.5369    0.0965   -0.9060 C   0  0  0  0  0  0  0  0  0  0  0  0
    0.0740   -0.0302    0.3958 C   0  0  0  0  0  0  0  0  0  0  0  0
   -0.7136   -0.0781    1.4827 C   0  0  0  0  0  0  0  0  0  0  0  0
   -0.0110   -0.2092    2.7883 C   0  0  0  0  0  0  0  0  0  0  0  0
    1.2747   -0.2802    2.9660 N   0  0  0  0  0  0  0  0  0  0  0  0
    2.0353   -0.2277    1.8338 C   0  0  0  0  0  0  0  0  0  0  0  0
    3.3410   -0.2765    1.7086 N   0  0  0  0  0  0  0  0  0  0  0  0
    3.5582   -0.1830    0.3583 C   0  0  0  0  0  0  0  0  0  0  0  0
    4.8978   -0.1998   -0.2074 C   0  0  0  0  0  0  0  0  0  0  0  0
    5.1244   -0.1044   -1.5843 C   0  0  0  0  0  0  0  0  0  0  0  0
    6.4283   -0.1251   -2.0776 C   0  0  0  0  0  0  0  0  0  0  0  0
    7.4714   -0.2411   -1.1738 C   0  0  0  0  0  0  0  0  0  0  0  0
    7.2979   -0.3357    0.1612 N   0  0  0  0  0  0  0  0  0  0  0  0
    6.0167   -0.3127    0.6120 C   0  0  0  0  0  0  0  0  0  0  0  0
    2.4412   -0.0770   -0.3754 N   0  0  0  0  0  0  0  0  0  0  0  0
    1.4617   -0.1050    0.5631 N   0  0  0  0  0  0  0  0  0  0  0  0
   -2.1931   -0.0036    1.3715 C   0  0  0  0  0  0  0  0  0  0  0  0
   -2.8551   -0.0529    2.4047 O   0  0  0  0  0  0  0  0  0  0  0  0
   -4.6532    1.3786    1.7118 H   0  0  0  0  0  0  0  0  0  0  0  0
   -5.8554    1.5560    0.4440 H   0  0  0  0  0  0  0  0  0  0  0  0
   -4.2794    2.3508    0.2875 H   0  0  0  0  0  0  0  0  0  0  0  0
   -4.4720   -1.9727   -0.0423 H   0  0  0  0  0  0  0  0  0  0  0  0
   -4.7682   -1.1980    1.5152 H   0  0  0  0  0  0  0  0  0  0  0  0
   -5.9726   -1.0745    0.2432 H   0  0  0  0  0  0  0  0  0  0  0  0
   -4.3683   -0.5287   -2.1847 H   0  0  0  0  0  0  0  0  0  0  0  0
   -4.2893    1.2445   -2.0494 H   0  0  0  0  0  0  0  0  0  0  0  0
   -5.7757    0.3870   -1.6537 H   0  0  0  0  0  0  0  0  0  0  0  0
   -2.2899    0.2600   -2.0231 H   0  0  0  0  0  0  0  0  0  0  0  0
    0.1030    0.1351   -1.7847 H   0  0  0  0  0  0  0  0  0  0  0  0
   -0.6622   -0.2480    3.6783 H   0  0  0  0  0  0  0  0  0  0  0  0
    4.2912   -0.0139   -2.2769 H   0  0  0  0  0  0  0  0  0  0  0  0
    6.6240   -0.0523   -3.1415 H   0  0  0  0  0  0  0  0  0  0  0  0
    8.5045   -0.2618   -1.5092 H   0  0  0  0  0  0  0  0  0  0  0  0
    5.9187   -0.3912    1.6929 H   0  0  0  0  0  0  0  0  0  0  0  0
  1  2  1  0
  2  3  1  0
  2  4  1  0
  2  5  1  0
  5  6  1  0
  6  7  2  0
  7  8  1  0
  8  9  2  0
  9 10  1  0
 10 11  2  0
 11 12  1  0
 12 13  2  0
 13 14  1  0
 14 15  1  0
 15 16  2  0
 16 17  1  0
 17 18  2  0
 18 19  1  0
 19 20  2  0
 14 21  2  0
 21 22  1  0
  9 23  1  0
 23 24  2  0
 23  5  1  0
 22  8  1  0
 22 12  1  0
 20 15  1  0
  1 25  1  0
  1 26  1  0
  1 27  1  0
  3 28  1  0
  3 29  1  0
  3 30  1  0
  4 31  1  0
  4 32  1  0
  4 33  1  0
  6 34  1  0
  7 35  1  0
 10 36  1  0
 16 37  1  0
 17 38  1  0
 18 39  1  0
 20 40  1  0
M  END
$$$$
