
     RDKit          3D

 46 48  0  0  0  0  0  0  0  0999 V2000
   -4.1919   -1.9408    0.2566 C   0  0  0  0  0  0  0  0  0  0  0  0
   -3.0503   -0.9890   -0.1199 C   0  0  0  0  0  0  0  0  0  0  0  0
   -2.7905   -0.0464    1.0571 C   0  0  0  0  0  0  0  0  0  0  0  0
   -1.8006   -1.8046   -0.5101 C   0  0  0  0  0  0  0  0  0  0  0  0
   -0.8451   -1.1050   -1.4859 C   0  0  0  0  0  0  0  0  0  0  0  0
   -0.0994    0.0125   -0.9505 N   0  0  0  0  0  0  0  0  0  0  0  0
    0.9460   -0.0611   -0.0470 C   0  0  0  0  0  0  0  0  0  0  0  0
    1.3876   -1.2555    0.4343 N   0  0  0  0  0  0  0  0  0  0  0  0
    1.6730   -1.2507    1.8954 C   0  0  0  0  0  0  0  0  0  0  0  0
    3.1802   -1.1711    2.1717 C   0  0  0  0  0  0  0  0  0  0  0  0
    3.9047   -2.2981    1.6481 O   0  0  0  0  0  0  0  0  0  0  0  0
    3.2933   -2.8600    0.4766 C   0  0  0  0  0  0  0  0  0  0  0  0
    2.5145   -1.8288   -0.3523 C   0  0  0  0  0  0  0  0  0  0  0  0
    1.3920    1.1371    0.2688 N   0  0  0  0  0  0  0  0  0  0  0  0
    0.6486    1.9930   -0.4791 C   0  0  0  0  0  0  0  0  0  0  0  0
   -0.2732    1.3390   -1.2463 C   0  0  0  0  0  0  0  0  0  0  0  0
   -1.1760    2.0295   -2.1006 C   0  0  0  0  0  0  0  0  0  0  0  0
   -2.0373    1.5103   -2.8011 O   0  0  0  0  0  0  0  0  0  0  0  0
   -0.9944    3.3944   -2.0674 N   0  0  0  0  0  0  0  0  0  0  0  0
   -0.0817    4.1030   -1.3087 C   0  0  0  0  0  0  0  0  0  0  0  0
   -0.0660    5.3311   -1.3922 O   0  0  0  0  0  0  0  0  0  0  0  0
    0.7670    3.3670   -0.4905 N   0  0  0  0  0  0  0  0  0  0  0  0
    1.7532    4.0286    0.3410 C   0  0  0  0  0  0  0  0  0  0  0  0
   -5.0939   -1.3813    0.5268 H   0  0  0  0  0  0  0  0  0  0  0  0
   -3.9171   -2.5744    1.1070 H   0  0  0  0  0  0  0  0  0  0  0  0
   -4.4485   -2.5934   -0.5848 H   0  0  0  0  0  0  0  0  0  0  0  0
   -3.3836   -0.3963   -0.9803 H   0  0  0  0  0  0  0  0  0  0  0  0
   -3.7122    0.4682    1.3504 H   0  0  0  0  0  0  0  0  0  0  0  0
   -2.0605    0.7255    0.8108 H   0  0  0  0  0  0  0  0  0  0  0  0
   -2.4211   -0.5942    1.9308 H   0  0  0  0  0  0  0  0  0  0  0  0
   -1.2671   -2.1273    0.3918 H   0  0  0  0  0  0  0  0  0  0  0  0
   -2.1270   -2.7247   -1.0130 H   0  0  0  0  0  0  0  0  0  0  0  0
   -0.1061   -1.8303   -1.8456 H   0  0  0  0  0  0  0  0  0  0  0  0
   -1.3894   -0.7783   -2.3758 H   0  0  0  0  0  0  0  0  0  0  0  0
    1.1466   -0.4371    2.4100 H   0  0  0  0  0  0  0  0  0  0  0  0
    1.2794   -2.1892    2.3050 H   0  0  0  0  0  0  0  0  0  0  0  0
    3.3648   -1.1403    3.2501 H   0  0  0  0  0  0  0  0  0  0  0  0
    3.6118   -0.2619    1.7378 H   0  0  0  0  0  0  0  0  0  0  0  0
    2.6336   -3.6740    0.7991 H   0  0  0  0  0  0  0  0  0  0  0  0
    4.0909   -3.3048   -0.1269 H   0  0  0  0  0  0  0  0  0  0  0  0
    2.1206   -2.3094   -1.2542 H   0  0  0  0  0  0  0  0  0  0  0  0
    3.2038   -1.0317   -0.6623 H   0  0  0  0  0  0  0  0  0  0  0  0
   -1.6061    3.9452   -2.6484 H   0  0  0  0  0  0  0  0  0  0  0  0
    1.7280    5.1138    0.2114 H   0  0  0  0  0  0  0  0  0  0  0  0
    1.5495    3.7956    1.3909 H   0  0  0  0  0  0  0  0  0  0  0  0
    2.7501    3.6661    0.0712 H   0  0  0  0  0  0  0  0  0  0  0  0
  1  2  1  0
  2  3  1  0
  2  4  1  0
  4  5  1  0
  5  6  1  0
  6  7  1  0
  7  8  1  0
  8  9  1  0
  9 10  1  0
 10 11  1  0
 11 12  1  0
 12 13  1  0
  7 14  2  0
 14 15  1  0
 15 16  2  0
 16 17  1  0
 17 18  2  0
 17 19  1  0
 19 20  1  0
 20 21  2  0
 20 22  1  0
 22 23  1  0
 16  6  1  0
 13  8  1  0
 22 15  1  0
  1 24  1  0
  1 25  1  0
  1 26  1  0
  2 27  1  0
  3 28  1  0
  3 29  1  0
  3 30  1  0
  4 31  1  0
  4 32  1  0
  5 33  1  0
  5 34  1  0
  9 35  1  0
  9 36  1  0
 10 37  1  0
 10 38  1  0
 12 39  1  0
 12 40  1  0
 13 41  1  0
 13 42  1  0
 19 43  1  0
 23 44  1  0
 23 45  1  0
 23 46  1  0
M  END
$$$$
