
     RDKit          3D

 51 54  0  0  0  0  0  0  0  0999 V2000
   -1.5278   -3.0999    0.0187 O   0  0  0  0  0  0  0  0  0  0  0  0
   -1.1730   -2.0352    0.5199 C   0  0  0  0  0  0  0  0  0  0  0  0
    0.2263   -1.9451    0.9742 C   0  0  0  0  0  0  0  0  0  0  0  0
    1.2449   -2.2828    0.0744 C   0  0  0  0  0  0  0  0  0  0  0  0
    2.5783   -2.1972    0.4871 C   0  0  0  0  0  0  0  0  0  0  0  0
    3.8802   -2.6309   -0.6470 S   0  0  0  0  0  6  0  0  0  0  0  0
    3.3410   -3.6265   -1.5513 O   0  0  0  0  0  0  0  0  0  0  0  0
    5.0571   -2.9197    0.1494 O   0  0  0  0  0  0  0  0  0  0  0  0
    4.2417   -1.1862   -1.6002 C   0  0  0  0  0  0  0  0  0  0  0  0
    3.0705   -0.6658   -2.4348 C   0  0  0  0  0  0  0  0  0  0  0  0
    3.5699    0.6262   -3.0649 C   0  0  0  0  0  0  0  0  0  0  0  0
    4.5141    1.4181   -1.7735 S   0  0  0  0  0  6  0  0  0  0  0  0
    5.7947    1.8191   -2.3114 O   0  0  0  0  0  0  0  0  0  0  0  0
    3.6413    2.3290   -1.0635 O   0  0  0  0  0  0  0  0  0  0  0  0
    4.7435   -0.0257   -0.7550 C   0  0  0  0  0  0  0  0  0  0  0  0
    2.8943   -1.8492    1.8063 C   0  0  0  0  0  0  0  0  0  0  0  0
    1.8692   -1.5475    2.7054 C   0  0  0  0  0  0  0  0  0  0  0  0
    0.5409   -1.5988    2.2873 C   0  0  0  0  0  0  0  0  0  0  0  0
   -0.4210   -1.3213    3.1780 F   0  0  0  0  0  0  0  0  0  0  0  0
   -2.0066   -0.9250    0.6291 N   0  0  0  0  0  0  0  0  0  0  0  0
   -3.4127   -1.0892    0.2582 C   0  0  0  0  0  0  0  0  0  0  0  0
   -4.2950   -0.0614    0.9491 C   0  0  0  0  0  0  0  0  0  0  0  0
   -3.8668    1.3625    0.5804 C   0  0  0  0  0  0  0  0  0  0  0  0
   -2.3813    1.4797    0.2256 C   0  0  0  0  0  0  0  0  0  0  0  0
   -1.5623    0.4325    0.9657 C   0  0  0  0  0  0  0  0  0  0  0  0
   -4.6418    1.8026   -0.5526 O   0  0  0  0  0  0  0  0  0  0  0  0
   -5.1630    3.0759   -0.1733 C   0  0  0  0  0  0  0  0  0  0  0  0
   -5.3071    2.9602    1.3179 C   0  0  0  0  0  0  0  0  0  0  0  0
   -4.1426    2.2290    1.6991 O   0  0  0  0  0  0  0  0  0  0  0  0
    0.9853   -2.6161   -0.9296 H   0  0  0  0  0  0  0  0  0  0  0  0
    5.0433   -1.4913   -2.2873 H   0  0  0  0  0  0  0  0  0  0  0  0
    2.2041   -0.4456   -1.8026 H   0  0  0  0  0  0  0  0  0  0  0  0
    2.7515   -1.3837   -3.1967 H   0  0  0  0  0  0  0  0  0  0  0  0
    2.7577    1.2814   -3.3858 H   0  0  0  0  0  0  0  0  0  0  0  0
    4.2448    0.4242   -3.9018 H   0  0  0  0  0  0  0  0  0  0  0  0
    4.1606    0.1257    0.1560 H   0  0  0  0  0  0  0  0  0  0  0  0
    5.8004   -0.1263   -0.4966 H   0  0  0  0  0  0  0  0  0  0  0  0
    3.9273   -1.8290    2.1508 H   0  0  0  0  0  0  0  0  0  0  0  0
    2.0953   -1.2880    3.7363 H   0  0  0  0  0  0  0  0  0  0  0  0
   -3.4805   -0.9942   -0.8323 H   0  0  0  0  0  0  0  0  0  0  0  0
   -3.7435   -2.1007    0.5198 H   0  0  0  0  0  0  0  0  0  0  0  0
   -5.3423   -0.2324    0.6731 H   0  0  0  0  0  0  0  0  0  0  0  0
   -4.2271   -0.2052    2.0355 H   0  0  0  0  0  0  0  0  0  0  0  0
   -2.2405    1.3468   -0.8552 H   0  0  0  0  0  0  0  0  0  0  0  0
   -2.0053    2.4801    0.4713 H   0  0  0  0  0  0  0  0  0  0  0  0
   -0.5050    0.5541    0.7121 H   0  0  0  0  0  0  0  0  0  0  0  0
   -1.6691    0.5581    2.0490 H   0  0  0  0  0  0  0  0  0  0  0  0
   -6.1061    3.2770   -0.6871 H   0  0  0  0  0  0  0  0  0  0  0  0
   -4.4282    3.8397   -0.4499 H   0  0  0  0  0  0  0  0  0  0  0  0
   -6.1871    2.3699    1.5951 H   0  0  0  0  0  0  0  0  0  0  0  0
   -5.3423    3.9260    1.8276 H   0  0  0  0  0  0  0  0  0  0  0  0
  1  2  2  0
  2  3  1  0
  3  4  2  0
  4  5  1  0
  5  6  1  0
  6  7  2  0
  6  8  2  0
  6  9  1  0
  9 10  1  0
 10 11  1  0
 11 12  1  0
 12 13  2  0
 12 14  2  0
 12 15  1  0
  5 16  2  0
 16 17  1  0
 17 18  2  0
 18 19  1  0
  2 20  1  0
 20 21  1  0
 21 22  1  0
 22 23  1  0
 23 24  1  0
 24 25  1  0
 23 26  1  0
 26 27  1  0
 27 28  1  0
 28 29  1  0
 18  3  1  0
 25 20  1  0
 15  9  1  0
 29 23  1  0
  4 30  1  0
  9 31  1  0
 10 32  1  0
 10 33  1  0
 11 34  1  0
 11 35  1  0
 15 36  1  0
 15 37  1  0
 16 38  1  0
 17 39  1  0
 21 40  1  0
 21 41  1  0
 22 42  1  0
 22 43  1  0
 24 44  1  0
 24 45  1  0
 25 46  1  0
 25 47  1  0
 27 48  1  0
 27 49  1  0
 28 50  1  0
 28 51  1  0
M  END
$$$$
