
     RDKit          3D

 37 38  0  0  0  0  0  0  0  0999 V2000
    7.1678    0.4181    0.1250 C   0  0  0  0  0  0  0  0  0  0  0  0
    6.3617   -0.7460   -0.0053 O   0  0  0  0  0  0  0  0  0  0  0  0
    5.0069   -0.5648   -0.0037 C   0  0  0  0  0  0  0  0  0  0  0  0
    4.3406    0.6543    0.1121 C   0  0  0  0  0  0  0  0  0  0  0  0
    2.9388    0.7025    0.0979 C   0  0  0  0  0  0  0  0  0  0  0  0
    2.1886   -0.4712   -0.0408 C   0  0  0  0  0  0  0  0  0  0  0  0
    0.7646   -0.4570   -0.0564 N   0  0  0  0  0  0  0  0  0  0  0  0
    0.0659   -1.6126    0.1293 N   0  0  0  0  0  0  0  0  0  0  0  0
   -1.2213   -1.3240    0.2293 N   0  0  0  0  0  0  0  0  0  0  0  0
   -1.3768    0.0213    0.0153 C   0  0  0  0  0  0  0  0  0  0  0  0
   -2.6812    0.6685   -0.0107 C   0  0  0  0  0  0  0  0  0  0  0  0
   -2.8355    1.8480   -0.3170 O   0  0  0  0  0  0  0  0  0  0  0  0
   -3.7219   -0.1753    0.3205 N   0  0  0  0  0  0  0  0  0  0  0  0
   -5.1147    0.2194    0.2045 C   0  0  0  0  0  0  0  0  0  0  0  0
   -5.9747   -0.6089    1.1531 C   0  0  0  0  0  0  0  0  0  0  0  0
   -5.5970    0.0686   -1.2363 C   0  0  0  0  0  0  0  0  0  0  0  0
   -0.1397    0.5992   -0.2254 C   0  0  0  0  0  0  0  0  0  0  0  0
    0.1768    1.8801   -0.5818 N   0  0  0  0  0  0  0  0  0  0  0  0
    2.8626   -1.6981   -0.1331 C   0  0  0  0  0  0  0  0  0  0  0  0
    4.2603   -1.7376   -0.1218 C   0  0  0  0  0  0  0  0  0  0  0  0
    8.2156    0.1033    0.1037 H   0  0  0  0  0  0  0  0  0  0  0  0
    7.0091    1.1041   -0.7136 H   0  0  0  0  0  0  0  0  0  0  0  0
    6.9892    0.9164    1.0835 H   0  0  0  0  0  0  0  0  0  0  0  0
    4.8793    1.5892    0.2297 H   0  0  0  0  0  0  0  0  0  0  0  0
    2.4701    1.6703    0.2482 H   0  0  0  0  0  0  0  0  0  0  0  0
   -3.4900   -1.1581    0.4283 H   0  0  0  0  0  0  0  0  0  0  0  0
   -5.1936    1.2756    0.4887 H   0  0  0  0  0  0  0  0  0  0  0  0
   -5.9193   -1.6763    0.9118 H   0  0  0  0  0  0  0  0  0  0  0  0
   -7.0239   -0.3005    1.1008 H   0  0  0  0  0  0  0  0  0  0  0  0
   -5.6365   -0.4872    2.1880 H   0  0  0  0  0  0  0  0  0  0  0  0
   -6.6440    0.3745   -1.3318 H   0  0  0  0  0  0  0  0  0  0  0  0
   -5.5112   -0.9697   -1.5760 H   0  0  0  0  0  0  0  0  0  0  0  0
   -5.0020    0.6870   -1.9169 H   0  0  0  0  0  0  0  0  0  0  0  0
   -0.6196    2.4950   -0.7867 H   0  0  0  0  0  0  0  0  0  0  0  0
    0.9137    2.0241   -1.2712 H   0  0  0  0  0  0  0  0  0  0  0  0
    2.3208   -2.6377   -0.2272 H   0  0  0  0  0  0  0  0  0  0  0  0
    4.7707   -2.6946   -0.2035 H   0  0  0  0  0  0  0  0  0  0  0  0
  1  2  1  0
  2  3  1  0
  3  4  2  0
  4  5  1  0
  5  6  2  0
  6  7  1  0
  7  8  1  0
  8  9  2  0
  9 10  1  0
 10 11  1  0
 11 12  2  0
 11 13  1  0
 13 14  1  0
 14 15  1  0
 14 16  1  0
 10 17  2  0
 17 18  1  0
  6 19  1  0
 19 20  2  0
 20  3  1  0
 17  7  1  0
  1 21  1  0
  1 22  1  0
  1 23  1  0
  4 24  1  0
  5 25  1  0
 13 26  1  0
 14 27  1  0
 15 28  1  0
 15 29  1  0
 15 30  1  0
 16 31  1  0
 16 32  1  0
 16 33  1  0
 18 34  1  0
 18 35  1  0
 19 36  1  0
 20 37  1  0
M  END
$$$$
