
     RDKit          3D

 44 46  0  0  0  0  0  0  0  0999 V2000
    7.8084    0.0192   -2.1058 C   0  0  0  0  0  0  0  0  0  0  0  0
    6.9936   -1.0030   -1.3577 C   0  0  0  0  0  0  0  0  0  0  0  0
    7.4330   -2.1299   -1.1366 O   0  0  0  0  0  0  0  0  0  0  0  0
    5.6277   -0.6330   -0.8819 C   0  0  0  0  0  0  0  0  0  0  0  0
    4.8941   -1.5764   -0.1544 C   0  0  0  0  0  0  0  0  0  0  0  0
    3.6103   -1.2713    0.3105 C   0  0  0  0  0  0  0  0  0  0  0  0
    3.0367   -0.0192    0.0582 C   0  0  0  0  0  0  0  0  0  0  0  0
    1.7364    0.2024    0.5586 N   0  0  0  0  0  0  0  0  0  0  0  0
    0.9890    1.3715    0.5013 C   0  0  0  0  0  0  0  0  0  0  0  0
    1.3976    2.4285    0.0309 O   0  0  0  0  0  0  0  0  0  0  0  0
   -0.3522    1.2348    1.0724 C   0  0  0  0  0  0  0  0  0  0  0  0
   -1.1460    0.1107    1.2273 C   0  0  0  0  0  0  0  0  0  0  0  0
   -2.4005    0.4082    1.8465 C   0  0  0  0  0  0  0  0  0  0  0  0
   -3.6291   -0.7801    2.1682 S   0  0  0  0  0  6  0  0  0  0  0  0
   -4.2935   -0.2903    3.3546 O   0  0  0  0  0  0  0  0  0  0  0  0
   -2.9045   -2.0321    2.1490 O   0  0  0  0  0  0  0  0  0  0  0  0
   -4.7229   -0.7706    0.8858 N   0  0  0  0  0  0  0  0  0  0  0  0
   -5.6815    0.3664    0.8215 C   0  0  0  0  0  0  0  0  0  0  0  0
   -6.4625    0.3167   -0.4952 C   0  0  0  0  0  0  0  0  0  0  0  0
   -5.6198    0.4516   -1.6486 O   0  0  0  0  0  0  0  0  0  0  0  0
   -4.3038   -0.0879   -1.4670 C   0  0  0  0  0  0  0  0  0  0  0  0
   -4.2445   -1.2303   -0.4476 C   0  0  0  0  0  0  0  0  0  0  0  0
   -2.5256    1.7449    2.1500 C   0  0  0  0  0  0  0  0  0  0  0  0
   -1.1581    2.6388    1.6509 S   0  0  0  0  0  0  0  0  0  0  0  0
    3.7697    0.9181   -0.6722 C   0  0  0  0  0  0  0  0  0  0  0  0
    5.0574    0.6164   -1.1392 C   0  0  0  0  0  0  0  0  0  0  0  0
    7.9692    0.9047   -1.4854 H   0  0  0  0  0  0  0  0  0  0  0  0
    7.3143    0.2835   -3.0443 H   0  0  0  0  0  0  0  0  0  0  0  0
    8.7877   -0.4073   -2.3449 H   0  0  0  0  0  0  0  0  0  0  0  0
    5.3187   -2.5567    0.0567 H   0  0  0  0  0  0  0  0  0  0  0  0
    3.0738   -2.0313    0.8737 H   0  0  0  0  0  0  0  0  0  0  0  0
    1.3350   -0.5675    1.0762 H   0  0  0  0  0  0  0  0  0  0  0  0
   -0.8597   -0.8856    0.9093 H   0  0  0  0  0  0  0  0  0  0  0  0
   -6.3796    0.2975    1.6616 H   0  0  0  0  0  0  0  0  0  0  0  0
   -5.1368    1.3140    0.8807 H   0  0  0  0  0  0  0  0  0  0  0  0
   -7.0099   -0.6287   -0.5868 H   0  0  0  0  0  0  0  0  0  0  0  0
   -7.1980    1.1265   -0.5302 H   0  0  0  0  0  0  0  0  0  0  0  0
   -3.9544   -0.4356   -2.4443 H   0  0  0  0  0  0  0  0  0  0  0  0
   -3.6476    0.7347   -1.1600 H   0  0  0  0  0  0  0  0  0  0  0  0
   -4.8977   -2.0523   -0.7631 H   0  0  0  0  0  0  0  0  0  0  0  0
   -3.2258   -1.6254   -0.3972 H   0  0  0  0  0  0  0  0  0  0  0  0
   -3.3558    2.2431    2.6345 H   0  0  0  0  0  0  0  0  0  0  0  0
    3.3715    1.9016   -0.9038 H   0  0  0  0  0  0  0  0  0  0  0  0
    5.5858    1.3806   -1.7022 H   0  0  0  0  0  0  0  0  0  0  0  0
  1  2  1  0
  2  3  2  0
  2  4  1  0
  4  5  2  0
  5  6  1  0
  6  7  2  0
  7  8  1  0
  8  9  1  0
  9 10  2  0
  9 11  1  0
 11 12  2  0
 12 13  1  0
 13 14  1  0
 14 15  2  0
 14 16  2  0
 14 17  1  0
 17 18  1  0
 18 19  1  0
 19 20  1  0
 20 21  1  0
 21 22  1  0
 13 23  2  0
 23 24  1  0
  7 25  1  0
 25 26  2  0
 26  4  1  0
 24 11  1  0
 22 17  1  0
  1 27  1  0
  1 28  1  0
  1 29  1  0
  5 30  1  0
  6 31  1  0
  8 32  1  0
 12 33  1  0
 18 34  1  0
 18 35  1  0
 19 36  1  0
 19 37  1  0
 21 38  1  0
 21 39  1  0
 22 40  1  0
 22 41  1  0
 23 42  1  0
 25 43  1  0
 26 44  1  0
M  END
$$$$
