
     RDKit          3D

 47 48  0  0  0  0  0  0  0  0999 V2000
    2.2453    1.5096   -0.7826 O   0  0  0  0  0  0  0  0  0  0  0  0
    1.7717    0.3759   -0.7478 C   0  0  0  0  0  0  0  0  0  0  0  0
    0.3814    0.0696   -1.2862 C   0  0  0  0  0  0  0  0  0  0  0  0
   -0.7407    0.7374   -0.5766 N   0  0  0  0  0  0  0  0  0  0  0  0
   -0.7296    2.2238   -0.7644 C   0  0  0  0  0  0  0  0  0  0  0  0
   -2.0829    2.8000   -1.1354 C   0  0  0  0  0  0  0  0  0  0  0  0
   -3.0321    2.0137   -1.8159 C   0  0  0  0  0  0  0  0  0  0  0  0
   -4.2715    2.5381   -2.1898 C   0  0  0  0  0  0  0  0  0  0  0  0
   -4.5831    3.8624   -1.9008 C   0  0  0  0  0  0  0  0  0  0  0  0
   -3.6492    4.6661   -1.2504 C   0  0  0  0  0  0  0  0  0  0  0  0
   -2.4049    4.1439   -0.8788 C   0  0  0  0  0  0  0  0  0  0  0  0
   -1.2893    5.2271   -0.1227 Cl  0  0  0  0  0  0  0  0  0  0  0  0
   -0.9962    0.2758    1.0461 S   0  0  0  0  0  6  0  0  0  0  0  0
    0.2540    0.3913    1.7623 O   0  0  0  0  0  0  0  0  0  0  0  0
   -2.1975    0.9197    1.5280 O   0  0  0  0  0  0  0  0  0  0  0  0
   -1.3763   -1.4553    0.8928 C   0  0  0  0  0  0  0  0  0  0  0  0
   -0.5053   -2.4149    1.4193 C   0  0  0  0  0  0  0  0  0  0  0  0
   -0.8197   -3.7690    1.2878 C   0  0  0  0  0  0  0  0  0  0  0  0
   -1.9975   -4.1489    0.6411 C   0  0  0  0  0  0  0  0  0  0  0  0
   -2.3773   -5.8176    0.4791 Cl  0  0  0  0  0  0  0  0  0  0  0  0
   -2.8707   -3.1872    0.1277 C   0  0  0  0  0  0  0  0  0  0  0  0
   -2.5630   -1.8323    0.2552 C   0  0  0  0  0  0  0  0  0  0  0  0
    2.4399   -0.7142   -0.2254 N   0  0  0  0  0  0  0  0  0  0  0  0
    3.7877   -0.5937    0.2961 C   0  0  0  0  0  0  0  0  0  0  0  0
    4.0120   -1.5467    1.4640 C   0  0  0  0  0  0  0  0  0  0  0  0
    5.4042   -1.3940    2.0589 C   0  0  0  0  0  0  0  0  0  0  0  0
    6.3857   -1.7413    1.0930 O   0  0  0  0  0  0  0  0  0  0  0  0
    0.2063   -1.0122   -1.3056 H   0  0  0  0  0  0  0  0  0  0  0  0
    0.3680    0.3704   -2.3428 H   0  0  0  0  0  0  0  0  0  0  0  0
   -0.3365    2.6869    0.1472 H   0  0  0  0  0  0  0  0  0  0  0  0
   -0.0448    2.4998   -1.5756 H   0  0  0  0  0  0  0  0  0  0  0  0
   -2.8140    0.9753   -2.0566 H   0  0  0  0  0  0  0  0  0  0  0  0
   -4.9948    1.9093   -2.7031 H   0  0  0  0  0  0  0  0  0  0  0  0
   -5.5491    4.2715   -2.1846 H   0  0  0  0  0  0  0  0  0  0  0  0
   -3.8946    5.7035   -1.0365 H   0  0  0  0  0  0  0  0  0  0  0  0
    0.4042   -2.1201    1.9392 H   0  0  0  0  0  0  0  0  0  0  0  0
   -0.1514   -4.5223    1.6992 H   0  0  0  0  0  0  0  0  0  0  0  0
   -3.7928   -3.4867   -0.3640 H   0  0  0  0  0  0  0  0  0  0  0  0
   -3.2475   -1.0779   -0.1299 H   0  0  0  0  0  0  0  0  0  0  0  0
    2.0900   -1.6463   -0.4034 H   0  0  0  0  0  0  0  0  0  0  0  0
    3.9700    0.4399    0.6105 H   0  0  0  0  0  0  0  0  0  0  0  0
    4.4681   -0.8160   -0.5318 H   0  0  0  0  0  0  0  0  0  0  0  0
    3.2622   -1.3620    2.2420 H   0  0  0  0  0  0  0  0  0  0  0  0
    3.8700   -2.5780    1.1166 H   0  0  0  0  0  0  0  0  0  0  0  0
    5.5792   -0.3723    2.4098 H   0  0  0  0  0  0  0  0  0  0  0  0
    5.5238   -2.0689    2.9127 H   0  0  0  0  0  0  0  0  0  0  0  0
    6.8882   -0.9331    0.8822 H   0  0  0  0  0  0  0  0  0  0  0  0
  1  2  2  0
  2  3  1  0
  3  4  1  0
  4  5  1  0
  5  6  1  0
  6  7  2  0
  7  8  1  0
  8  9  2  0
  9 10  1  0
 10 11  2  0
 11 12  1  0
  4 13  1  0
 13 14  2  0
 13 15  2  0
 13 16  1  0
 16 17  2  0
 17 18  1  0
 18 19  2  0
 19 20  1  0
 19 21  1  0
 21 22  2  0
  2 23  1  0
 23 24  1  0
 24 25  1  0
 25 26  1  0
 26 27  1  0
 11  6  1  0
 22 16  1  0
  3 28  1  0
  3 29  1  0
  5 30  1  0
  5 31  1  0
  7 32  1  0
  8 33  1  0
  9 34  1  0
 10 35  1  0
 17 36  1  0
 18 37  1  0
 21 38  1  0
 22 39  1  0
 23 40  1  0
 24 41  1  0
 24 42  1  0
 25 43  1  0
 25 44  1  0
 26 45  1  0
 26 46  1  0
 27 47  1  0
M  END
$$$$
