
     RDKit          3D

 40 42  0  0  0  0  0  0  0  0999 V2000
   -5.8313   -0.4787    0.3325 C   0  0  0  0  0  0  0  0  0  0  0  0
   -5.1874    0.8839    0.1265 C   0  0  0  0  0  0  0  0  0  0  0  0
   -3.7038    0.7729   -0.1113 C   0  0  0  0  0  0  0  0  0  0  0  0
   -2.8088    0.7811    0.9629 C   0  0  0  0  0  0  0  0  0  0  0  0
   -1.4330    0.6498    0.7475 C   0  0  0  0  0  0  0  0  0  0  0  0
   -0.9173    0.5096   -0.5485 C   0  0  0  0  0  0  0  0  0  0  0  0
    0.5589    0.3678   -0.8401 C   0  0  0  0  0  0  0  0  0  0  0  0
    1.5321    1.0839    0.0979 C   0  0  0  0  0  0  0  0  0  0  0  0
    2.8043    0.3442   -0.2008 C   0  0  0  0  0  0  0  0  0  0  0  0
    4.0850    0.8780    0.1536 C   0  0  0  0  0  0  0  0  0  0  0  0
    5.3648    0.3787    0.0042 C   0  0  0  0  0  0  0  0  0  0  0  0
    6.2452    1.3477    0.5425 C   0  0  0  0  0  0  0  0  0  0  0  0
    5.4522    2.3785    0.9867 C   0  0  0  0  0  0  0  0  0  0  0  0
    4.1428    2.1049    0.7549 O   0  0  0  0  0  0  0  0  0  0  0  0
    2.6628   -0.8209   -0.7617 N   0  0  0  0  0  0  0  0  0  0  0  0
    1.1590   -1.0003   -0.9711 N   0  0  0  0  0  0  0  0  0  0  0  0
    0.4422   -2.2700   -0.0577 S   0  0  0  0  0  6  0  0  0  0  0  0
    1.5520   -3.6127   -0.4217 C   0  0  0  0  0  0  0  0  0  0  0  0
   -0.8403   -2.6058   -0.6392 O   0  0  0  0  0  0  0  0  0  0  0  0
    0.5771   -1.9414    1.3485 O   0  0  0  0  0  0  0  0  0  0  0  0
   -1.8265    0.4797   -1.6198 C   0  0  0  0  0  0  0  0  0  0  0  0
   -3.2010    0.6118   -1.4053 C   0  0  0  0  0  0  0  0  0  0  0  0
   -5.6911   -1.1210   -0.5436 H   0  0  0  0  0  0  0  0  0  0  0  0
   -6.9068   -0.3672    0.5026 H   0  0  0  0  0  0  0  0  0  0  0  0
   -5.4025   -0.9942    1.1986 H   0  0  0  0  0  0  0  0  0  0  0  0
   -5.3741    1.5181    1.0017 H   0  0  0  0  0  0  0  0  0  0  0  0
   -5.6600    1.3926   -0.7226 H   0  0  0  0  0  0  0  0  0  0  0  0
   -3.1778    0.8726    1.9823 H   0  0  0  0  0  0  0  0  0  0  0  0
   -0.7844    0.6294    1.6197 H   0  0  0  0  0  0  0  0  0  0  0  0
    0.7087    0.8252   -1.8319 H   0  0  0  0  0  0  0  0  0  0  0  0
    1.6078    2.1520   -0.1241 H   0  0  0  0  0  0  0  0  0  0  0  0
    1.3125    0.9489    1.1606 H   0  0  0  0  0  0  0  0  0  0  0  0
    5.6232   -0.5733   -0.4399 H   0  0  0  0  0  0  0  0  0  0  0  0
    7.3237    1.3006    0.6010 H   0  0  0  0  0  0  0  0  0  0  0  0
    5.6547    3.3267    1.4658 H   0  0  0  0  0  0  0  0  0  0  0  0
    2.5393   -3.3932   -0.0128 H   0  0  0  0  0  0  0  0  0  0  0  0
    1.5927   -3.7563   -1.5031 H   0  0  0  0  0  0  0  0  0  0  0  0
    1.1533   -4.5121    0.0534 H   0  0  0  0  0  0  0  0  0  0  0  0
   -1.4706    0.3360   -2.6385 H   0  0  0  0  0  0  0  0  0  0  0  0
   -3.8774    0.5726   -2.2560 H   0  0  0  0  0  0  0  0  0  0  0  0
  1  2  1  0
  2  3  1  0
  3  4  2  0
  4  5  1  0
  5  6  2  0
  6  7  1  0
  7  8  1  0
  8  9  1  0
  9 10  1  0
 10 11  2  0
 11 12  1  0
 12 13  2  0
 13 14  1  0
  9 15  2  0
 15 16  1  0
 16 17  1  0
 17 18  1  0
 17 19  2  0
 17 20  2  0
  6 21  1  0
 21 22  2  0
 22  3  1  0
 16  7  1  0
 14 10  1  0
  1 23  1  0
  1 24  1  0
  1 25  1  0
  2 26  1  0
  2 27  1  0
  4 28  1  0
  5 29  1  0
  7 30  1  0
  8 31  1  0
  8 32  1  0
 11 33  1  0
 12 34  1  0
 13 35  1  0
 18 36  1  0
 18 37  1  0
 18 38  1  0
 21 39  1  0
 22 40  1  0
M  END
$$$$
