
     RDKit          3D

 49 52  0  0  0  0  0  0  0  0999 V2000
   -3.7110    4.8758    0.0426 C   0  0  0  0  0  0  0  0  0  0  0  0
   -3.3537    3.9013   -0.9290 O   0  0  0  0  0  0  0  0  0  0  0  0
   -2.7059    2.7848   -0.4792 C   0  0  0  0  0  0  0  0  0  0  0  0
   -2.3425    1.8789   -1.4765 C   0  0  0  0  0  0  0  0  0  0  0  0
   -1.6750    0.6939   -1.1582 C   0  0  0  0  0  0  0  0  0  0  0  0
   -1.3514    0.3954    0.1731 C   0  0  0  0  0  0  0  0  0  0  0  0
   -0.6433   -0.8910    0.5568 C   0  0  0  0  0  0  0  0  0  0  0  0
   -1.6087   -2.0690    0.5802 C   0  0  0  0  0  0  0  0  0  0  0  0
   -1.0953   -2.8672   -0.5851 C   0  0  0  0  0  0  0  0  0  0  0  0
   -1.8067   -4.0321   -1.0613 C   0  0  0  0  0  0  0  0  0  0  0  0
   -2.9800   -4.5855   -0.5799 C   0  0  0  0  0  0  0  0  0  0  0  0
   -3.3826   -5.7411   -1.3126 C   0  0  0  0  0  0  0  0  0  0  0  0
   -2.5051   -6.0350   -2.3305 C   0  0  0  0  0  0  0  0  0  0  0  0
   -1.2091   -4.9244   -2.3983 S   0  0  0  0  0  0  0  0  0  0  0  0
    0.0280   -2.4476   -1.0823 N   0  0  0  0  0  0  0  0  0  0  0  0
    0.3881   -1.3047   -0.3985 N   0  0  0  0  0  0  0  0  0  0  0  0
    1.6187   -0.7033   -0.6719 C   0  0  0  0  0  0  0  0  0  0  0  0
    2.4023   -1.1528   -1.5123 O   0  0  0  0  0  0  0  0  0  0  0  0
    1.9207    0.5748    0.1403 C   0  0  0  0  0  0  0  0  0  0  0  0
    3.3455    0.9515    0.1204 N   0  0  0  0  0  0  0  0  0  0  0  0
    4.2141   -0.0168    0.7912 C   0  0  0  0  0  0  0  0  0  0  0  0
    5.5031    0.7630    1.0166 C   0  0  0  0  0  0  0  0  0  0  0  0
    5.1027    2.2328    0.9545 C   0  0  0  0  0  0  0  0  0  0  0  0
    3.5913    2.2228    0.7972 C   0  0  0  0  0  0  0  0  0  0  0  0
   -1.7278    1.3064    1.1722 C   0  0  0  0  0  0  0  0  0  0  0  0
   -2.3970    2.4929    0.8483 C   0  0  0  0  0  0  0  0  0  0  0  0
   -4.1983    5.7052   -0.4791 H   0  0  0  0  0  0  0  0  0  0  0  0
   -2.8248    5.2744    0.5474 H   0  0  0  0  0  0  0  0  0  0  0  0
   -4.4277    4.4690    0.7636 H   0  0  0  0  0  0  0  0  0  0  0  0
   -2.5789    2.0986   -2.5156 H   0  0  0  0  0  0  0  0  0  0  0  0
   -1.4049    0.0139   -1.9658 H   0  0  0  0  0  0  0  0  0  0  0  0
   -0.1704   -0.7734    1.5386 H   0  0  0  0  0  0  0  0  0  0  0  0
   -2.6617   -1.7994    0.4586 H   0  0  0  0  0  0  0  0  0  0  0  0
   -1.4875   -2.6649    1.4914 H   0  0  0  0  0  0  0  0  0  0  0  0
   -3.5362   -4.1887    0.2605 H   0  0  0  0  0  0  0  0  0  0  0  0
   -4.2700   -6.3264   -1.1043 H   0  0  0  0  0  0  0  0  0  0  0  0
   -2.5594   -6.8485   -3.0411 H   0  0  0  0  0  0  0  0  0  0  0  0
    1.5919    0.4482    1.1762 H   0  0  0  0  0  0  0  0  0  0  0  0
    1.3384    1.3812   -0.3197 H   0  0  0  0  0  0  0  0  0  0  0  0
    4.3978   -0.9118    0.1897 H   0  0  0  0  0  0  0  0  0  0  0  0
    3.7995   -0.3276    1.7587 H   0  0  0  0  0  0  0  0  0  0  0  0
    6.2372    0.5437    0.2328 H   0  0  0  0  0  0  0  0  0  0  0  0
    5.9557    0.5099    1.9810 H   0  0  0  0  0  0  0  0  0  0  0  0
    5.5780    2.7088    0.0885 H   0  0  0  0  0  0  0  0  0  0  0  0
    5.4143    2.7790    1.8504 H   0  0  0  0  0  0  0  0  0  0  0  0
    3.2421    3.0787    0.2112 H   0  0  0  0  0  0  0  0  0  0  0  0
    3.1136    2.2557    1.7848 H   0  0  0  0  0  0  0  0  0  0  0  0
   -1.5039    1.1047    2.2181 H   0  0  0  0  0  0  0  0  0  0  0  0
   -2.6644    3.1658    1.6564 H   0  0  0  0  0  0  0  0  0  0  0  0
  1  2  1  0
  2  3  1  0
  3  4  2  0
  4  5  1  0
  5  6  2  0
  6  7  1  0
  7  8  1  0
  8  9  1  0
  9 10  1  0
 10 11  2  0
 11 12  1  0
 12 13  2  0
 13 14  1  0
  9 15  2  0
 15 16  1  0
 16 17  1  0
 17 18  2  0
 17 19  1  0
 19 20  1  0
 20 21  1  0
 21 22  1  0
 22 23  1  0
 23 24  1  0
  6 25  1  0
 25 26  2  0
 26  3  1  0
 16  7  1  0
 24 20  1  0
 14 10  1  0
  1 27  1  0
  1 28  1  0
  1 29  1  0
  4 30  1  0
  5 31  1  0
  7 32  1  0
  8 33  1  0
  8 34  1  0
 11 35  1  0
 12 36  1  0
 13 37  1  0
 19 38  1  0
 19 39  1  0
 21 40  1  0
 21 41  1  0
 22 42  1  0
 22 43  1  0
 23 44  1  0
 23 45  1  0
 24 46  1  0
 24 47  1  0
 25 48  1  0
 26 49  1  0
M  END
$$$$
