
     RDKit          3D

 37 38  0  0  0  0  0  0  0  0999 V2000
    3.5334    1.0556    2.1631 C   0  0  0  0  0  0  0  0  0  0  0  0
    3.3950    1.6416    0.7655 C   0  0  0  0  0  0  0  0  0  0  0  0
    3.3784    0.5701   -0.3042 C   0  0  0  0  0  0  0  0  0  0  0  0
    4.5923    0.3050   -0.9699 C   0  0  0  0  0  0  0  0  0  0  0  0
    4.6704   -0.6678   -1.9627 C   0  0  0  0  0  0  0  0  0  0  0  0
    3.5366   -1.3923   -2.3028 C   0  0  0  0  0  0  0  0  0  0  0  0
    2.3260   -1.1488   -1.6483 C   0  0  0  0  0  0  0  0  0  0  0  0
    2.2261   -0.1773   -0.6441 C   0  0  0  0  0  0  0  0  0  0  0  0
    1.0124    0.0788    0.0380 N   0  0  0  0  0  0  0  0  0  0  0  0
   -0.2155   -0.5440   -0.1295 C   0  0  0  0  0  0  0  0  0  0  0  0
   -0.4701   -1.4714   -0.8893 O   0  0  0  0  0  0  0  0  0  0  0  0
   -1.2571    0.0190    0.8221 C   0  0  0  0  0  0  0  0  0  0  0  0
   -2.6855   -0.3355    0.4053 C   0  0  0  0  0  0  0  0  0  0  0  0
   -3.2587    0.8129   -0.9274 S   0  0  0  0  0  0  0  0  0  0  0  0
   -5.0579    0.4701   -0.9105 C   0  0  0  0  0  0  0  0  0  0  0  0
   -5.4570   -0.6975   -0.0129 C   0  0  0  0  0  0  0  0  0  0  0  0
   -4.9586   -0.5342    1.3344 N   0  0  0  0  0  0  0  0  0  0  0  0
   -3.6376   -0.2707    1.6025 C   0  0  0  0  0  0  0  0  0  0  0  0
   -3.2848   -0.0358    2.7553 O   0  0  0  0  0  0  0  0  0  0  0  0
    2.6985    0.3918    2.4093 H   0  0  0  0  0  0  0  0  0  0  0  0
    3.5573    1.8577    2.9076 H   0  0  0  0  0  0  0  0  0  0  0  0
    4.4589    0.4775    2.2584 H   0  0  0  0  0  0  0  0  0  0  0  0
    2.4962    2.2647    0.6946 H   0  0  0  0  0  0  0  0  0  0  0  0
    4.2300    2.3310    0.5857 H   0  0  0  0  0  0  0  0  0  0  0  0
    5.4915    0.8620   -0.7138 H   0  0  0  0  0  0  0  0  0  0  0  0
    5.6129   -0.8588   -2.4686 H   0  0  0  0  0  0  0  0  0  0  0  0
    3.5858   -2.1529   -3.0777 H   0  0  0  0  0  0  0  0  0  0  0  0
    1.4719   -1.7445   -1.9537 H   0  0  0  0  0  0  0  0  0  0  0  0
    1.0445    0.8002    0.7440 H   0  0  0  0  0  0  0  0  0  0  0  0
   -1.0253   -0.4253    1.7991 H   0  0  0  0  0  0  0  0  0  0  0  0
   -1.1332    1.1038    0.9300 H   0  0  0  0  0  0  0  0  0  0  0  0
   -2.7280   -1.3591    0.0160 H   0  0  0  0  0  0  0  0  0  0  0  0
   -5.3850    0.2849   -1.9384 H   0  0  0  0  0  0  0  0  0  0  0  0
   -5.5523    1.3859   -0.5685 H   0  0  0  0  0  0  0  0  0  0  0  0
   -6.5472   -0.7771    0.0446 H   0  0  0  0  0  0  0  0  0  0  0  0
   -5.0732   -1.6447   -0.4085 H   0  0  0  0  0  0  0  0  0  0  0  0
   -5.5911   -0.4746    2.1240 H   0  0  0  0  0  0  0  0  0  0  0  0
  1  2  1  0
  2  3  1  0
  3  4  2  0
  4  5  1  0
  5  6  2  0
  6  7  1  0
  7  8  2  0
  8  9  1  0
  9 10  1  0
 10 11  2  0
 10 12  1  0
 12 13  1  0
 13 14  1  0
 14 15  1  0
 15 16  1  0
 16 17  1  0
 17 18  1  0
 18 19  2  0
  8  3  1  0
 18 13  1  0
  1 20  1  0
  1 21  1  0
  1 22  1  0
  2 23  1  0
  2 24  1  0
  4 25  1  0
  5 26  1  0
  6 27  1  0
  7 28  1  0
  9 29  1  0
 12 30  1  0
 12 31  1  0
 13 32  1  0
 15 33  1  0
 15 34  1  0
 16 35  1  0
 16 36  1  0
 17 37  1  0
M  END
$$$$
