
     RDKit          3D

 32 34  0  0  0  0  0  0  0  0999 V2000
    3.2156    2.0276    0.4485 C   0  0  0  0  0  0  0  0  0  0  0  0
    3.6179    0.6684    0.3671 O   0  0  0  0  0  0  0  0  0  0  0  0
    2.6382   -0.2706    0.1786 C   0  0  0  0  0  0  0  0  0  0  0  0
    1.2851    0.0126   -0.0365 C   0  0  0  0  0  0  0  0  0  0  0  0
    0.3446   -1.0217   -0.2194 C   0  0  0  0  0  0  0  0  0  0  0  0
   -1.1296   -0.7227   -0.4631 C   0  0  0  0  0  0  0  0  0  0  0  0
   -1.3183   -0.0205   -1.8191 C   0  0  0  0  0  0  0  0  0  0  0  0
   -2.7161    0.5408   -2.0217 C   0  0  0  0  0  0  0  0  0  0  0  0
   -3.2359    0.6019   -3.1348 O   0  0  0  0  0  0  0  0  0  0  0  0
   -3.3395    1.0889   -0.9290 N   0  0  0  0  0  0  0  0  0  0  0  0
   -2.8724    0.9207    0.3567 C   0  0  0  0  0  0  0  0  0  0  0  0
   -3.4095    1.4994    1.5342 C   0  0  0  0  0  0  0  0  0  0  0  0
   -2.7286    1.0814    2.6585 C   0  0  0  0  0  0  0  0  0  0  0  0
   -1.4803   -0.0300    2.2805 S   0  0  0  0  0  0  0  0  0  0  0  0
   -1.8113    0.0836    0.6121 C   0  0  0  0  0  0  0  0  0  0  0  0
    0.7882   -2.3521   -0.1864 C   0  0  0  0  0  0  0  0  0  0  0  0
    2.1358   -2.6462    0.0227 C   0  0  0  0  0  0  0  0  0  0  0  0
    3.0499   -1.6090    0.2018 C   0  0  0  0  0  0  0  0  0  0  0  0
    4.3731   -1.8988    0.4071 O   0  0  0  0  0  0  0  0  0  0  0  0
    4.1077    2.6294    0.6472 H   0  0  0  0  0  0  0  0  0  0  0  0
    2.7893    2.3695   -0.5003 H   0  0  0  0  0  0  0  0  0  0  0  0
    2.5169    2.1861    1.2768 H   0  0  0  0  0  0  0  0  0  0  0  0
    0.9335    1.0395   -0.0591 H   0  0  0  0  0  0  0  0  0  0  0  0
   -1.6767   -1.6762   -0.5111 H   0  0  0  0  0  0  0  0  0  0  0  0
   -0.6300    0.8263   -1.9381 H   0  0  0  0  0  0  0  0  0  0  0  0
   -1.1054   -0.7270   -2.6308 H   0  0  0  0  0  0  0  0  0  0  0  0
   -4.2133    1.5737   -1.0893 H   0  0  0  0  0  0  0  0  0  0  0  0
   -4.2472    2.1841    1.5712 H   0  0  0  0  0  0  0  0  0  0  0  0
   -2.9129    1.3584    3.6876 H   0  0  0  0  0  0  0  0  0  0  0  0
    0.0867   -3.1728   -0.3225 H   0  0  0  0  0  0  0  0  0  0  0  0
    2.4538   -3.6838    0.0437 H   0  0  0  0  0  0  0  0  0  0  0  0
    4.4907   -2.8607    0.4067 H   0  0  0  0  0  0  0  0  0  0  0  0
  1  2  1  0
  2  3  1  0
  3  4  2  0
  4  5  1  0
  5  6  1  0
  6  7  1  0
  7  8  1  0
  8  9  2  0
  8 10  1  0
 10 11  1  0
 11 12  1  0
 12 13  2  0
 13 14  1  0
 14 15  1  0
  5 16  2  0
 16 17  1  0
 17 18  2  0
 18 19  1  0
 18  3  1  0
 15  6  1  0
 15 11  2  0
  1 20  1  0
  1 21  1  0
  1 22  1  0
  4 23  1  0
  6 24  1  0
  7 25  1  0
  7 26  1  0
 10 27  1  0
 12 28  1  0
 13 29  1  0
 16 30  1  0
 17 31  1  0
 19 32  1  0
M  END
$$$$
