
     RDKit          3D

 43 45  0  0  0  0  0  0  0  0999 V2000
    7.9373    1.0856   -0.5829 C   0  0  0  0  0  0  0  0  0  0  0  0
    7.5250   -0.1760   -0.0725 O   0  0  0  0  0  0  0  0  0  0  0  0
    6.1906   -0.4662   -0.1346 C   0  0  0  0  0  0  0  0  0  0  0  0
    5.1844    0.3900   -0.5866 C   0  0  0  0  0  0  0  0  0  0  0  0
    3.8494   -0.0331   -0.5941 C   0  0  0  0  0  0  0  0  0  0  0  0
    3.5161   -1.3161   -0.1414 C   0  0  0  0  0  0  0  0  0  0  0  0
    2.1063   -1.7932   -0.1351 C   0  0  0  0  0  0  0  0  0  0  0  0
    1.8814   -2.9829   -0.3139 O   0  0  0  0  0  0  0  0  0  0  0  0
    1.1764   -0.8376    0.2543 N   0  0  0  0  0  0  0  0  0  0  0  0
   -0.1623   -0.8083   -0.0734 C   0  0  0  0  0  0  0  0  0  0  0  0
   -0.6361   -1.6675   -0.9097 N   0  0  0  0  0  0  0  0  0  0  0  0
   -1.9709   -1.6244   -1.2417 C   0  0  0  0  0  0  0  0  0  0  0  0
   -2.4694   -2.3573   -2.0902 O   0  0  0  0  0  0  0  0  0  0  0  0
   -2.8604   -0.6531   -0.5546 C   0  0  0  0  0  0  0  0  0  0  0  0
   -4.2355   -0.6189   -0.8076 C   0  0  0  0  0  0  0  0  0  0  0  0
   -5.0361    0.3180   -0.1513 C   0  0  0  0  0  0  0  0  0  0  0  0
   -6.3926    0.4352   -0.3257 O   0  0  0  0  0  0  0  0  0  0  0  0
   -7.0233   -0.4718   -1.2206 C   0  0  0  0  0  0  0  0  0  0  0  0
   -4.4470    1.2268    0.7552 C   0  0  0  0  0  0  0  0  0  0  0  0
   -5.3039    2.1228    1.3455 O   0  0  0  0  0  0  0  0  0  0  0  0
   -4.7731    3.0213    2.3080 C   0  0  0  0  0  0  0  0  0  0  0  0
   -3.0660    1.1806    0.9933 C   0  0  0  0  0  0  0  0  0  0  0  0
   -2.2704    0.2253    0.3540 C   0  0  0  0  0  0  0  0  0  0  0  0
   -0.8812    0.1919    0.5251 N   0  0  0  0  0  0  0  0  0  0  0  0
    4.5243   -2.1808    0.2921 C   0  0  0  0  0  0  0  0  0  0  0  0
    5.8530   -1.7506    0.3016 C   0  0  0  0  0  0  0  0  0  0  0  0
    7.5067    1.9058    0.0008 H   0  0  0  0  0  0  0  0  0  0  0  0
    9.0258    1.1452   -0.4882 H   0  0  0  0  0  0  0  0  0  0  0  0
    7.6891    1.1828   -1.6450 H   0  0  0  0  0  0  0  0  0  0  0  0
    5.4074    1.3878   -0.9507 H   0  0  0  0  0  0  0  0  0  0  0  0
    3.0890    0.6358   -0.9889 H   0  0  0  0  0  0  0  0  0  0  0  0
    1.5406   -0.0105    0.6964 H   0  0  0  0  0  0  0  0  0  0  0  0
   -4.6468   -1.3285   -1.5188 H   0  0  0  0  0  0  0  0  0  0  0  0
   -6.9073   -1.5064   -0.8814 H   0  0  0  0  0  0  0  0  0  0  0  0
   -8.0933   -0.2429   -1.2288 H   0  0  0  0  0  0  0  0  0  0  0  0
   -6.6483   -0.3437   -2.2413 H   0  0  0  0  0  0  0  0  0  0  0  0
   -5.5990    3.6287    2.6907 H   0  0  0  0  0  0  0  0  0  0  0  0
   -4.0445    3.7001    1.8530 H   0  0  0  0  0  0  0  0  0  0  0  0
   -4.3367    2.4818    3.1549 H   0  0  0  0  0  0  0  0  0  0  0  0
   -2.5945    1.8838    1.6702 H   0  0  0  0  0  0  0  0  0  0  0  0
   -0.5180    0.6363    1.3554 H   0  0  0  0  0  0  0  0  0  0  0  0
    4.2801   -3.1889    0.6217 H   0  0  0  0  0  0  0  0  0  0  0  0
    6.6338   -2.4268    0.6432 H   0  0  0  0  0  0  0  0  0  0  0  0
  1  2  1  0
  2  3  1  0
  3  4  2  0
  4  5  1  0
  5  6  2  0
  6  7  1  0
  7  8  2  0
  7  9  1  0
  9 10  1  0
 10 11  2  0
 11 12  1  0
 12 13  2  0
 12 14  1  0
 14 15  2  0
 15 16  1  0
 16 17  1  0
 17 18  1  0
 16 19  2  0
 19 20  1  0
 20 21  1  0
 19 22  1  0
 22 23  2  0
 23 24  1  0
  6 25  1  0
 25 26  2  0
 26  3  1  0
 24 10  1  0
 23 14  1  0
  1 27  1  0
  1 28  1  0
  1 29  1  0
  4 30  1  0
  5 31  1  0
  9 32  1  0
 15 33  1  0
 18 34  1  0
 18 35  1  0
 18 36  1  0
 21 37  1  0
 21 38  1  0
 21 39  1  0
 22 40  1  0
 24 41  1  0
 25 42  1  0
 26 43  1  0
M  END
$$$$
