
     RDKit          3D

 52 55  0  0  0  0  0  0  0  0999 V2000
   -5.9094   -3.7393   -1.4376 C   0  0  0  0  0  0  0  0  0  0  0  0
   -4.5234   -3.4213   -1.4425 O   0  0  0  0  0  0  0  0  0  0  0  0
   -4.1111   -2.4360   -0.5876 C   0  0  0  0  0  0  0  0  0  0  0  0
   -4.9245   -1.7174    0.2886 C   0  0  0  0  0  0  0  0  0  0  0  0
   -4.3701   -0.7335    1.1110 C   0  0  0  0  0  0  0  0  0  0  0  0
   -3.0022   -0.4636    1.0592 C   0  0  0  0  0  0  0  0  0  0  0  0
   -2.1746   -1.1723    0.1822 C   0  0  0  0  0  0  0  0  0  0  0  0
   -0.7434   -0.8949    0.1252 C   0  0  0  0  0  0  0  0  0  0  0  0
    0.2578   -1.7876    0.3149 C   0  0  0  0  0  0  0  0  0  0  0  0
    1.4318   -1.0814    0.1620 N   0  0  0  0  0  0  0  0  0  0  0  0
    2.7734   -1.2349    0.1744 C   0  0  0  0  0  0  0  0  0  0  0  0
    3.5915   -2.3617    0.4093 C   0  0  0  0  0  0  0  0  0  0  0  0
    3.1396   -3.4729    0.6648 O   0  0  0  0  0  0  0  0  0  0  0  0
    4.9547   -2.0610    0.3161 N   0  0  0  0  0  0  0  0  0  0  0  0
    5.9057   -3.1335    0.5363 C   0  0  0  0  0  0  0  0  0  0  0  0
    5.5030   -0.7951    0.0143 C   0  0  0  0  0  0  0  0  0  0  0  0
    6.7247   -0.6320   -0.0526 O   0  0  0  0  0  0  0  0  0  0  0  0
    4.6059    0.2538   -0.2032 N   0  0  0  0  0  0  0  0  0  0  0  0
    5.0908    1.5850   -0.5211 C   0  0  0  0  0  0  0  0  0  0  0  0
    3.2535    0.0146   -0.1189 C   0  0  0  0  0  0  0  0  0  0  0  0
    2.2594    0.9452   -0.3120 N   0  0  0  0  0  0  0  0  0  0  0  0
    1.1740    0.2410   -0.1194 C   0  0  0  0  0  0  0  0  0  0  0  0
   -0.1802    0.3821   -0.1252 N   0  0  0  0  0  0  0  0  0  0  0  0
   -0.8093    1.5736   -0.6593 C   0  0  0  0  0  0  0  0  0  0  0  0
   -0.7777    2.7033    0.3720 C   0  0  0  0  0  0  0  0  0  0  0  0
   -1.4991    3.9446   -0.1447 C   0  0  0  0  0  0  0  0  0  0  0  0
   -1.4481    5.0827    0.8639 C   0  0  0  0  0  0  0  0  0  0  0  0
   -2.1551    6.1944    0.3324 O   0  0  0  0  0  0  0  0  0  0  0  0
   -2.7405   -2.1601   -0.6342 C   0  0  0  0  0  0  0  0  0  0  0  0
   -6.0720   -4.5362   -2.1697 H   0  0  0  0  0  0  0  0  0  0  0  0
   -6.5130   -2.8783   -1.7431 H   0  0  0  0  0  0  0  0  0  0  0  0
   -6.2242   -4.1168   -0.4592 H   0  0  0  0  0  0  0  0  0  0  0  0
   -5.9918   -1.8984    0.3582 H   0  0  0  0  0  0  0  0  0  0  0  0
   -5.0059   -0.1782    1.7963 H   0  0  0  0  0  0  0  0  0  0  0  0
   -2.5838    0.2966    1.7144 H   0  0  0  0  0  0  0  0  0  0  0  0
    0.2308   -2.8416    0.5334 H   0  0  0  0  0  0  0  0  0  0  0  0
    6.5763   -2.8531    1.3553 H   0  0  0  0  0  0  0  0  0  0  0  0
    5.4213   -4.0811    0.7844 H   0  0  0  0  0  0  0  0  0  0  0  0
    6.5048   -3.2675   -0.3704 H   0  0  0  0  0  0  0  0  0  0  0  0
    4.7315    2.2870    0.2381 H   0  0  0  0  0  0  0  0  0  0  0  0
    6.1829    1.6267   -0.5457 H   0  0  0  0  0  0  0  0  0  0  0  0
    4.7076    1.8791   -1.5034 H   0  0  0  0  0  0  0  0  0  0  0  0
   -0.2986    1.8901   -1.5781 H   0  0  0  0  0  0  0  0  0  0  0  0
   -1.8469    1.3681   -0.9471 H   0  0  0  0  0  0  0  0  0  0  0  0
    0.2614    2.9576    0.6150 H   0  0  0  0  0  0  0  0  0  0  0  0
   -1.2449    2.3684    1.3061 H   0  0  0  0  0  0  0  0  0  0  0  0
   -1.0535    4.2780   -1.0904 H   0  0  0  0  0  0  0  0  0  0  0  0
   -2.5457    3.7075   -0.3734 H   0  0  0  0  0  0  0  0  0  0  0  0
   -1.9182    4.7908    1.8083 H   0  0  0  0  0  0  0  0  0  0  0  0
   -0.4145    5.3864    1.0584 H   0  0  0  0  0  0  0  0  0  0  0  0
   -2.0848    6.9145    0.9824 H   0  0  0  0  0  0  0  0  0  0  0  0
   -2.1161   -2.7216   -1.3260 H   0  0  0  0  0  0  0  0  0  0  0  0
  1  2  1  0
  2  3  1  0
  3  4  2  0
  4  5  1  0
  5  6  2  0
  6  7  1  0
  7  8  1  0
  8  9  2  0
  9 10  1  0
 10 11  1  0
 11 12  1  0
 12 13  2  0
 12 14  1  0
 14 15  1  0
 14 16  1  0
 16 17  2  0
 16 18  1  0
 18 19  1  0
 18 20  1  0
 20 21  1  0
 21 22  2  0
 22 23  1  0
 23 24  1  0
 24 25  1  0
 25 26  1  0
 26 27  1  0
 27 28  1  0
  7 29  2  0
 29  3  1  0
 23  8  1  0
 22 10  1  0
 20 11  2  0
  1 30  1  0
  1 31  1  0
  1 32  1  0
  4 33  1  0
  5 34  1  0
  6 35  1  0
  9 36  1  0
 15 37  1  0
 15 38  1  0
 15 39  1  0
 19 40  1  0
 19 41  1  0
 19 42  1  0
 24 43  1  0
 24 44  1  0
 25 45  1  0
 25 46  1  0
 26 47  1  0
 26 48  1  0
 27 49  1  0
 27 50  1  0
 28 51  1  0
 29 52  1  0
M  END
$$$$
