
     RDKit          3D

 40 41  0  0  0  0  0  0  0  0999 V2000
   -5.2937   -0.7335   -1.6099 C   0  0  0  0  0  0  0  0  0  0  0  0
   -4.4343   -0.2206   -0.4597 C   0  0  0  0  0  0  0  0  0  0  0  0
   -5.2558    0.6897    0.4476 C   0  0  0  0  0  0  0  0  0  0  0  0
   -3.3407    0.4950   -1.0428 O   0  0  0  0  0  0  0  0  0  0  0  0
   -2.2330    0.6608   -0.1555 C   0  0  0  0  0  0  0  0  0  0  0  0
   -1.1280    1.3801   -0.9213 C   0  0  0  0  0  0  0  0  0  0  0  0
    0.0873    1.7053   -0.0614 C   0  0  0  0  0  0  0  0  0  0  0  0
    0.8578    0.5286    0.2902 N   0  0  0  0  0  0  0  0  0  0  0  0
    0.6882   -0.1454    1.4848 C   0  0  0  0  0  0  0  0  0  0  0  0
   -0.1562    0.2245    2.2986 O   0  0  0  0  0  0  0  0  0  0  0  0
    1.5192   -1.3089    1.6769 C   0  0  0  0  0  0  0  0  0  0  0  0
    0.9460   -2.5781    2.6894 S   0  0  0  0  0  0  0  0  0  0  0  0
    2.2688   -3.5530    2.3967 N   0  0  0  0  0  0  0  0  0  0  0  0
    3.1588   -2.9833    1.6047 N   0  0  0  0  0  0  0  0  0  0  0  0
    2.7681   -1.7048    1.2178 C   0  0  0  0  0  0  0  0  0  0  0  0
    3.6577   -0.9087    0.3903 C   0  0  0  0  0  0  0  0  0  0  0  0
    4.0484    0.3799    0.7788 C   0  0  0  0  0  0  0  0  0  0  0  0
    4.8930    1.1341   -0.0382 C   0  0  0  0  0  0  0  0  0  0  0  0
    5.3597    0.6027   -1.2397 C   0  0  0  0  0  0  0  0  0  0  0  0
    4.9903   -0.6856   -1.6235 C   0  0  0  0  0  0  0  0  0  0  0  0
    4.1456   -1.4420   -0.8092 C   0  0  0  0  0  0  0  0  0  0  0  0
   -4.7010   -1.3752   -2.2710 H   0  0  0  0  0  0  0  0  0  0  0  0
   -6.1495   -1.3084   -1.2431 H   0  0  0  0  0  0  0  0  0  0  0  0
   -5.6635    0.0947   -2.2247 H   0  0  0  0  0  0  0  0  0  0  0  0
   -4.0594   -1.0821    0.1061 H   0  0  0  0  0  0  0  0  0  0  0  0
   -4.6755    1.0070    1.3193 H   0  0  0  0  0  0  0  0  0  0  0  0
   -6.1540    0.1803    0.8109 H   0  0  0  0  0  0  0  0  0  0  0  0
   -5.5565    1.6009   -0.0810 H   0  0  0  0  0  0  0  0  0  0  0  0
   -2.5335    1.2540    0.7136 H   0  0  0  0  0  0  0  0  0  0  0  0
   -1.8910   -0.3247    0.1768 H   0  0  0  0  0  0  0  0  0  0  0  0
   -1.5357    2.3134   -1.3301 H   0  0  0  0  0  0  0  0  0  0  0  0
   -0.8336    0.7770   -1.7895 H   0  0  0  0  0  0  0  0  0  0  0  0
   -0.2096    2.2436    0.8451 H   0  0  0  0  0  0  0  0  0  0  0  0
    0.7649    2.3551   -0.6258 H   0  0  0  0  0  0  0  0  0  0  0  0
    1.4828    0.1559   -0.4133 H   0  0  0  0  0  0  0  0  0  0  0  0
    3.7085    0.8060    1.7207 H   0  0  0  0  0  0  0  0  0  0  0  0
    5.1951    2.1332    0.2672 H   0  0  0  0  0  0  0  0  0  0  0  0
    6.0230    1.1885   -1.8718 H   0  0  0  0  0  0  0  0  0  0  0  0
    5.3672   -1.1051   -2.5533 H   0  0  0  0  0  0  0  0  0  0  0  0
    3.8740   -2.4511   -1.1151 H   0  0  0  0  0  0  0  0  0  0  0  0
  1  2  1  0
  2  3  1  0
  2  4  1  0
  4  5  1  0
  5  6  1  0
  6  7  1  0
  7  8  1  0
  8  9  1  0
  9 10  2  0
  9 11  1  0
 11 12  1  0
 12 13  1  0
 13 14  2  0
 14 15  1  0
 15 16  1  0
 16 17  2  0
 17 18  1  0
 18 19  2  0
 19 20  1  0
 20 21  2  0
 15 11  2  0
 21 16  1  0
  1 22  1  0
  1 23  1  0
  1 24  1  0
  2 25  1  0
  3 26  1  0
  3 27  1  0
  3 28  1  0
  5 29  1  0
  5 30  1  0
  6 31  1  0
  6 32  1  0
  7 33  1  0
  7 34  1  0
  8 35  1  0
 17 36  1  0
 18 37  1  0
 19 38  1  0
 20 39  1  0
 21 40  1  0
M  END
$$$$
