
     RDKit          3D

 48 51  0  0  0  0  0  0  0  0999 V2000
    6.7542    1.4998    1.0460 C   0  0  0  0  0  0  0  0  0  0  0  0
    6.2704    0.4893    0.1736 O   0  0  0  0  0  0  0  0  0  0  0  0
    4.9121    0.3069    0.1037 C   0  0  0  0  0  0  0  0  0  0  0  0
    3.9747    1.0605    0.8113 C   0  0  0  0  0  0  0  0  0  0  0  0
    2.6047    0.8014    0.6763 C   0  0  0  0  0  0  0  0  0  0  0  0
    2.1359   -0.2123   -0.1598 C   0  0  0  0  0  0  0  0  0  0  0  0
    0.7811   -0.5096   -0.3417 N   0  0  0  0  0  0  0  0  0  0  0  0
   -0.4107    0.0062    0.1664 C   0  0  0  0  0  0  0  0  0  0  0  0
   -1.5111   -0.6437   -0.2690 N   0  0  0  0  0  0  0  0  0  0  0  0
   -2.7641   -0.2677    0.1174 C   0  0  0  0  0  0  0  0  0  0  0  0
   -3.8461   -0.9780   -0.3634 N   0  0  0  0  0  0  0  0  0  0  0  0
   -3.6112   -2.0455   -1.3306 C   0  0  0  0  0  0  0  0  0  0  0  0
   -5.0221   -2.4487   -1.7440 C   0  0  0  0  0  0  0  0  0  0  0  0
   -5.7519   -1.1155   -1.7547 C   0  0  0  0  0  0  0  0  0  0  0  0
   -5.1564   -0.3661   -0.5608 C   0  0  0  0  0  0  0  0  0  0  0  0
   -2.8406    0.8047    1.0185 C   0  0  0  0  0  0  0  0  0  0  0  0
   -3.8208    1.5187    1.7422 C   0  0  0  0  0  0  0  0  0  0  0  0
   -3.3118    2.5030    2.4922 N   0  0  0  0  0  0  0  0  0  0  0  0
   -1.9835    2.4063    2.2587 N   0  0  0  0  0  0  0  0  0  0  0  0
   -1.0773    3.3106    2.9203 C   0  0  0  0  0  0  0  0  0  0  0  0
   -1.6513    1.3984    1.3955 C   0  0  0  0  0  0  0  0  0  0  0  0
   -0.4191    1.0517    1.0002 N   0  0  0  0  0  0  0  0  0  0  0  0
    3.0886   -0.9623   -0.8724 C   0  0  0  0  0  0  0  0  0  0  0  0
    4.4643   -0.7165   -0.7498 C   0  0  0  0  0  0  0  0  0  0  0  0
    5.4413   -1.4150   -1.4166 O   0  0  0  0  0  0  0  0  0  0  0  0
    5.0326   -2.4650   -2.2801 C   0  0  0  0  0  0  0  0  0  0  0  0
    7.8469    1.4985    0.9861 H   0  0  0  0  0  0  0  0  0  0  0  0
    6.4061    2.4902    0.7349 H   0  0  0  0  0  0  0  0  0  0  0  0
    6.4787    1.2907    2.0850 H   0  0  0  0  0  0  0  0  0  0  0  0
    4.2705    1.8615    1.4798 H   0  0  0  0  0  0  0  0  0  0  0  0
    1.9170    1.4161    1.2481 H   0  0  0  0  0  0  0  0  0  0  0  0
    0.5554   -1.2972   -0.9315 H   0  0  0  0  0  0  0  0  0  0  0  0
   -3.0705   -2.8907   -0.8921 H   0  0  0  0  0  0  0  0  0  0  0  0
   -3.0599   -1.6735   -2.2035 H   0  0  0  0  0  0  0  0  0  0  0  0
   -5.0476   -2.9558   -2.7124 H   0  0  0  0  0  0  0  0  0  0  0  0
   -5.4645   -3.1134   -0.9919 H   0  0  0  0  0  0  0  0  0  0  0  0
   -6.8378   -1.2233   -1.6809 H   0  0  0  0  0  0  0  0  0  0  0  0
   -5.5265   -0.5756   -2.6827 H   0  0  0  0  0  0  0  0  0  0  0  0
   -5.7725   -0.5186    0.3318 H   0  0  0  0  0  0  0  0  0  0  0  0
   -5.1055    0.7047   -0.7863 H   0  0  0  0  0  0  0  0  0  0  0  0
   -4.8906    1.3622    1.7580 H   0  0  0  0  0  0  0  0  0  0  0  0
   -0.9942    3.0055    3.9662 H   0  0  0  0  0  0  0  0  0  0  0  0
   -1.4810    4.3239    2.8487 H   0  0  0  0  0  0  0  0  0  0  0  0
   -0.0976    3.2750    2.4378 H   0  0  0  0  0  0  0  0  0  0  0  0
    2.7304   -1.7474   -1.5296 H   0  0  0  0  0  0  0  0  0  0  0  0
    4.5085   -3.2510   -1.7266 H   0  0  0  0  0  0  0  0  0  0  0  0
    5.9327   -2.9099   -2.7151 H   0  0  0  0  0  0  0  0  0  0  0  0
    4.4200   -2.0834   -3.1034 H   0  0  0  0  0  0  0  0  0  0  0  0
  1  2  1  0
  2  3  1  0
  3  4  2  0
  4  5  1  0
  5  6  2  0
  6  7  1  0
  7  8  1  0
  8  9  2  0
  9 10  1  0
 10 11  1  0
 11 12  1  0
 12 13  1  0
 13 14  1  0
 14 15  1  0
 10 16  2  0
 16 17  1  0
 17 18  2  0
 18 19  1  0
 19 20  1  0
 19 21  1  0
 21 22  2  0
  6 23  1  0
 23 24  2  0
 24 25  1  0
 25 26  1  0
 24  3  1  0
 22  8  1  0
 15 11  1  0
 21 16  1  0
  1 27  1  0
  1 28  1  0
  1 29  1  0
  4 30  1  0
  5 31  1  0
  7 32  1  0
 12 33  1  0
 12 34  1  0
 13 35  1  0
 13 36  1  0
 14 37  1  0
 14 38  1  0
 15 39  1  0
 15 40  1  0
 17 41  1  0
 20 42  1  0
 20 43  1  0
 20 44  1  0
 23 45  1  0
 26 46  1  0
 26 47  1  0
 26 48  1  0
M  END
$$$$
