
     RDKit          3D

 56 59  0  0  0  0  0  0  0  0999 V2000
    8.1515    1.0965   -0.0231 C   0  0  0  0  0  0  0  0  0  0  0  0
    7.3272    0.1588   -0.7029 O   0  0  0  0  0  0  0  0  0  0  0  0
    6.1578   -0.1953   -0.0883 C   0  0  0  0  0  0  0  0  0  0  0  0
    5.6871    0.2974    1.1286 C   0  0  0  0  0  0  0  0  0  0  0  0
    4.4668   -0.1525    1.6463 C   0  0  0  0  0  0  0  0  0  0  0  0
    3.7033   -1.1025    0.9556 C   0  0  0  0  0  0  0  0  0  0  0  0
    2.3794   -1.5753    1.5084 C   0  0  0  0  0  0  0  0  0  0  0  0
    1.1883   -0.7006    1.0675 C   0  0  0  0  0  0  0  0  0  0  0  0
    0.8853   -0.7833   -0.3785 N   0  0  0  0  0  0  0  0  0  0  0  0
    0.1551   -2.0205   -0.7176 C   0  0  0  0  0  0  0  0  0  0  0  0
   -1.3356   -2.0228   -0.3543 C   0  0  0  0  0  0  0  0  0  0  0  0
   -1.8608   -3.1074   -0.0859 O   0  0  0  0  0  0  0  0  0  0  0  0
   -2.0316   -0.7950   -0.4071 N   0  0  0  0  0  0  0  0  0  0  0  0
   -3.4394   -0.8004   -0.0858 C   0  0  0  0  0  0  0  0  0  0  0  0
   -4.2821   -1.7777   -0.6305 C   0  0  0  0  0  0  0  0  0  0  0  0
   -5.6522   -1.7815   -0.3567 C   0  0  0  0  0  0  0  0  0  0  0  0
   -6.2081   -0.8051    0.4685 C   0  0  0  0  0  0  0  0  0  0  0  0
   -5.3916    0.1756    1.0244 C   0  0  0  0  0  0  0  0  0  0  0  0
   -5.7981    1.1879    1.8513 O   0  0  0  0  0  0  0  0  0  0  0  0
   -7.1820    1.2323    2.1785 C   0  0  0  0  0  0  0  0  0  0  0  0
   -4.0181    0.1719    0.7448 C   0  0  0  0  0  0  0  0  0  0  0  0
   -1.2935    0.4878   -0.3367 C   0  0  2  0  0  0  0  0  0  0  0  0
   -1.9324    1.6566   -1.1094 C   0  0  0  0  0  0  0  0  0  0  0  0
   -1.1278    1.7347   -2.6929 S   0  0  0  0  0  6  0  0  0  0  0  0
   -2.0396    1.2644   -3.7138 O   0  0  0  0  0  0  0  0  0  0  0  0
   -0.4535    3.0131   -2.7914 O   0  0  0  0  0  0  0  0  0  0  0  0
    0.0881    0.4802   -2.3911 C   0  0  0  0  0  0  0  0  0  0  0  0
    0.1589    0.3965   -0.8640 C   0  0  2  0  0  0  0  0  0  0  0  0
    4.1783   -1.5892   -0.2668 C   0  0  0  0  0  0  0  0  0  0  0  0
    5.3959   -1.1379   -0.7812 C   0  0  0  0  0  0  0  0  0  0  0  0
    8.4763    0.7067    0.9472 H   0  0  0  0  0  0  0  0  0  0  0  0
    7.6442    2.0605    0.0868 H   0  0  0  0  0  0  0  0  0  0  0  0
    9.0459    1.2586   -0.6324 H   0  0  0  0  0  0  0  0  0  0  0  0
    6.2428    1.0327    1.7006 H   0  0  0  0  0  0  0  0  0  0  0  0
    4.1188    0.2456    2.5970 H   0  0  0  0  0  0  0  0  0  0  0  0
    2.2239   -2.6281    1.2465 H   0  0  0  0  0  0  0  0  0  0  0  0
    2.4348   -1.5599    2.6051 H   0  0  0  0  0  0  0  0  0  0  0  0
    0.3078   -0.9704    1.6641 H   0  0  0  0  0  0  0  0  0  0  0  0
    1.4317    0.3368    1.3332 H   0  0  0  0  0  0  0  0  0  0  0  0
    0.2313   -2.2212   -1.7919 H   0  0  0  0  0  0  0  0  0  0  0  0
    0.6218   -2.8841   -0.2313 H   0  0  0  0  0  0  0  0  0  0  0  0
   -3.8910   -2.5442   -1.2961 H   0  0  0  0  0  0  0  0  0  0  0  0
   -6.2853   -2.5501   -0.7938 H   0  0  0  0  0  0  0  0  0  0  0  0
   -7.2757   -0.8418    0.6566 H   0  0  0  0  0  0  0  0  0  0  0  0
   -7.7936    1.3904    1.2840 H   0  0  0  0  0  0  0  0  0  0  0  0
   -7.4901    0.3288    2.7151 H   0  0  0  0  0  0  0  0  0  0  0  0
   -7.3404    2.0856    2.8451 H   0  0  0  0  0  0  0  0  0  0  0  0
   -3.4169    0.9369    1.2260 H   0  0  0  0  0  0  0  0  0  0  0  0
   -1.2521    0.7410    0.7310 H   0  0  0  0  0  0  0  0  0  0  0  0
   -3.0064    1.5788   -1.2814 H   0  0  0  0  0  0  0  0  0  0  0  0
   -1.7176    2.6018   -0.5999 H   0  0  0  0  0  0  0  0  0  0  0  0
    1.0397    0.7727   -2.8414 H   0  0  0  0  0  0  0  0  0  0  0  0
   -0.2788   -0.4320   -2.8672 H   0  0  0  0  0  0  0  0  0  0  0  0
    0.6979    1.2975   -0.5351 H   0  0  0  0  0  0  0  0  0  0  0  0
    3.6012   -2.3178   -0.8308 H   0  0  0  0  0  0  0  0  0  0  0  0
    5.7532   -1.5236   -1.7327 H   0  0  0  0  0  0  0  0  0  0  0  0
  1  2  1  0
  2  3  1  0
  3  4  2  0
  4  5  1  0
  5  6  2  0
  6  7  1  0
  7  8  1  0
  8  9  1  0
  9 10  1  0
 10 11  1  0
 11 12  2  0
 11 13  1  0
 13 14  1  0
 14 15  2  0
 15 16  1  0
 16 17  2  0
 17 18  1  0
 18 19  1  0
 19 20  1  0
 18 21  2  0
 13 22  1  0
 22 23  1  0
 23 24  1  0
 24 25  2  0
 24 26  2  0
 24 27  1  0
 27 28  1  0
  6 29  1  0
 29 30  2  0
 30  3  1  0
 28  9  1  0
 21 14  1  0
 28 22  1  0
  1 31  1  0
  1 32  1  0
  1 33  1  0
  4 34  1  0
  5 35  1  0
  7 36  1  0
  7 37  1  0
  8 38  1  0
  8 39  1  0
 10 40  1  0
 10 41  1  0
 15 42  1  0
 16 43  1  0
 17 44  1  0
 20 45  1  0
 20 46  1  0
 20 47  1  0
 21 48  1  0
 22 49  1  1
 23 50  1  0
 23 51  1  0
 27 52  1  0
 27 53  1  0
 28 54  1  1
 29 55  1  0
 30 56  1  0
M  END
$$$$
