
     RDKit          3D

 52 54  0  0  0  0  0  0  0  0999 V2000
    0.6889    0.0000    0.0000 Cl  0  0  0  0  0  0  0  0  0  0  0  0
    2.7316   -0.4094    1.1123 O   0  0  0  0  0  0  0  0  0  0  0  0
    2.2403    0.2011    0.1340 C   0  0  0  0  0  0  0  0  0  0  0  0
    3.1149    1.1152   -0.6338 C   0  0  0  0  0  0  0  0  0  0  0  0
    4.4815    1.1249   -0.0563 C   0  0  0  0  0  0  0  0  0  0  0  0
    5.4498    0.2222   -0.5078 C   0  0  0  0  0  0  0  0  0  0  0  0
    6.7191    0.2256    0.0240 C   0  0  0  0  0  0  0  0  0  0  0  0
    7.1031    1.1004    1.0124 C   0  0  0  0  0  0  0  0  0  0  0  0
    8.3519    1.1083    1.5397 F   0  0  0  0  0  0  0  0  0  0  0  0
    6.1531    1.9999    1.4685 C   0  0  0  0  0  0  0  0  0  0  0  0
    4.8858    1.9934    0.9346 C   0  0  0  0  0  0  0  0  0  0  0  0
    0.8667   -0.0060   -0.2008 N   0  0  0  0  0  0  0  0  0  0  0  0
    0.0839   -0.9122    0.5968 C   0  0  0  0  0  0  0  0  0  0  0  0
   -1.3337   -1.0714    0.1854 C   0  0  0  0  0  0  0  0  0  0  0  0
   -2.0864    0.2049    0.2323 C   0  0  0  0  0  0  0  0  0  0  0  0
   -2.2104    1.0543   -0.8467 C   0  0  0  0  0  0  0  0  0  0  0  0
   -2.9153    2.2439   -0.7652 C   0  0  0  0  0  0  0  0  0  0  0  0
   -3.5222    2.6159    0.4178 C   0  0  0  0  0  0  0  0  0  0  0  0
   -3.4186    1.7879    1.5205 C   0  0  0  0  0  0  0  0  0  0  0  0
   -2.7129    0.6140    1.4102 C   0  0  0  0  0  0  0  0  0  0  0  0
   -4.1100    2.3696    2.5988 O   0  0  0  0  0  0  0  0  0  0  0  0
   -4.9669    3.3418    2.0393 C   0  0  0  0  0  0  0  0  0  0  0  0
   -4.2818    3.6990    0.8456 O   0  0  0  0  0  0  0  0  0  0  0  0
   -1.5548   -1.7563   -1.0565 N   0  0  0  0  0  0  0  0  0  0  0  0
   -1.0738   -3.1171   -0.9897 C   0  0  0  0  0  0  0  0  0  0  0  0
   -2.1194   -4.0152   -1.5563 C   0  0  0  0  0  0  0  0  0  0  0  0
   -3.1877   -3.0996   -2.0525 C   0  0  0  0  0  0  0  0  0  0  0  0
   -3.0067   -1.8615   -1.2315 C   0  0  0  0  0  0  0  0  0  0  0  0
   -0.6889    0.0000    0.0000 H   0  0  0  0  0  0  0  0  0  0  0  0
    3.1186    0.8865   -1.7192 H   0  0  0  0  0  0  0  0  0  0  0  0
    2.6729    2.1323   -0.5451 H   0  0  0  0  0  0  0  0  0  0  0  0
    5.1311   -0.4633   -1.2902 H   0  0  0  0  0  0  0  0  0  0  0  0
    7.4436   -0.4799   -0.3425 H   0  0  0  0  0  0  0  0  0  0  0  0
    6.4698    2.6890    2.2532 H   0  0  0  0  0  0  0  0  0  0  0  0
    4.1451    2.6961    1.2909 H   0  0  0  0  0  0  0  0  0  0  0  0
    0.4498    0.5053   -1.0244 H   0  0  0  0  0  0  0  0  0  0  0  0
    0.0616   -0.4561    1.6317 H   0  0  0  0  0  0  0  0  0  0  0  0
    0.6087   -1.8895    0.7535 H   0  0  0  0  0  0  0  0  0  0  0  0
   -1.8231   -1.7281    0.9756 H   0  0  0  0  0  0  0  0  0  0  0  0
   -1.7667    0.8159   -1.7896 H   0  0  0  0  0  0  0  0  0  0  0  0
   -3.0065    2.8951   -1.6039 H   0  0  0  0  0  0  0  0  0  0  0  0
   -2.6338   -0.0337    2.2793 H   0  0  0  0  0  0  0  0  0  0  0  0
   -5.0191    4.1894    2.7578 H   0  0  0  0  0  0  0  0  0  0  0  0
   -5.9622    2.9410    1.7795 H   0  0  0  0  0  0  0  0  0  0  0  0
   -0.1411   -3.2180   -1.5991 H   0  0  0  0  0  0  0  0  0  0  0  0
   -0.8572   -3.4423    0.0509 H   0  0  0  0  0  0  0  0  0  0  0  0
   -2.5573   -4.6807   -0.7651 H   0  0  0  0  0  0  0  0  0  0  0  0
   -1.7309   -4.7006   -2.3371 H   0  0  0  0  0  0  0  0  0  0  0  0
   -4.2253   -3.4940   -1.8530 H   0  0  0  0  0  0  0  0  0  0  0  0
   -3.1467   -2.9092   -3.1430 H   0  0  0  0  0  0  0  0  0  0  0  0
   -3.4313   -0.9576   -1.7061 H   0  0  0  0  0  0  0  0  0  0  0  0
   -3.4812   -2.0714   -0.2291 H   0  0  0  0  0  0  0  0  0  0  0  0
  2  3  2  0
  3  4  1  0
  4  5  1  0
  5  6  2  0
  6  7  1  0
  7  8  2  0
  8  9  1  0
  8 10  1  0
 10 11  2  0
  3 12  1  0
 12 13  1  0
 13 14  1  0
 14 15  1  0
 15 16  2  0
 16 17  1  0
 17 18  2  0
 18 19  1  0
 19 20  2  0
 19 21  1  0
 21 22  1  0
 22 23  1  0
 14 24  1  0
 24 25  1  0
 25 26  1  0
 26 27  1  0
 27 28  1  0
 11  5  1  0
 20 15  1  0
 28 24  1  0
 23 18  1  0
  1 29  1  0
  4 30  1  0
  4 31  1  0
  6 32  1  0
  7 33  1  0
 10 34  1  0
 11 35  1  0
 12 36  1  0
 13 37  1  0
 13 38  1  0
 14 39  1  0
 16 40  1  0
 17 41  1  0
 20 42  1  0
 22 43  1  0
 22 44  1  0
 25 45  1  0
 25 46  1  0
 26 47  1  0
 26 48  1  0
 27 49  1  0
 27 50  1  0
 28 51  1  0
 28 52  1  0
M  END
$$$$
