
     RDKit          3D

 35 37  0  0  0  0  0  0  0  0999 V2000
    6.8242   -1.0094    0.1955 C   0  0  0  0  0  0  0  0  0  0  0  0
    5.6617   -0.1196   -0.0364 C   0  0  0  0  0  0  0  0  0  0  0  0
    5.6668    1.2329   -0.4256 C   0  0  0  0  0  0  0  0  0  0  0  0
    4.3402    1.5829   -0.4987 C   0  0  0  0  0  0  0  0  0  0  0  0
    3.6048    0.4661   -0.1621 N   0  0  0  0  0  0  0  0  0  0  0  0
    2.1891    0.3331   -0.0943 C   0  0  0  0  0  0  0  0  0  0  0  0
    1.3408    1.4076   -0.3858 C   0  0  0  0  0  0  0  0  0  0  0  0
   -0.0506    1.2497   -0.3114 C   0  0  0  0  0  0  0  0  0  0  0  0
   -0.6109    0.0251    0.0526 C   0  0  0  0  0  0  0  0  0  0  0  0
   -1.9929   -0.2058    0.1478 N   0  0  0  0  0  0  0  0  0  0  0  0
   -3.0308    0.6768   -0.0846 C   0  0  0  0  0  0  0  0  0  0  0  0
   -2.9454    1.8509   -0.4242 O   0  0  0  0  0  0  0  0  0  0  0  0
   -4.3796    0.0502    0.1238 C   0  0  0  0  0  0  0  0  0  0  0  0
   -5.5341    0.7990   -0.0677 C   0  0  0  0  0  0  0  0  0  0  0  0
   -6.7610    0.1755    0.1373 C   0  0  0  0  0  0  0  0  0  0  0  0
   -6.7914   -1.1617    0.5227 C   0  0  0  0  0  0  0  0  0  0  0  0
   -5.5882   -1.8310    0.6903 C   0  0  0  0  0  0  0  0  0  0  0  0
   -4.3776   -1.2623    0.5014 N   0  0  0  0  0  0  0  0  0  0  0  0
    0.2388   -1.0470    0.3434 C   0  0  0  0  0  0  0  0  0  0  0  0
    1.6280   -0.8977    0.2715 C   0  0  0  0  0  0  0  0  0  0  0  0
    4.4191   -0.5848    0.1234 N   0  0  0  0  0  0  0  0  0  0  0  0
    7.7670   -0.4802    0.0236 H   0  0  0  0  0  0  0  0  0  0  0  0
    6.8261   -1.3783    1.2262 H   0  0  0  0  0  0  0  0  0  0  0  0
    6.7907   -1.8695   -0.4810 H   0  0  0  0  0  0  0  0  0  0  0  0
    6.5186    1.8673   -0.6259 H   0  0  0  0  0  0  0  0  0  0  0  0
    3.8762    2.5210   -0.7590 H   0  0  0  0  0  0  0  0  0  0  0  0
    1.7185    2.3833   -0.6744 H   0  0  0  0  0  0  0  0  0  0  0  0
   -0.6725    2.1085   -0.5456 H   0  0  0  0  0  0  0  0  0  0  0  0
   -2.3004   -1.1369    0.4221 H   0  0  0  0  0  0  0  0  0  0  0  0
   -5.4793    1.8404   -0.3685 H   0  0  0  0  0  0  0  0  0  0  0  0
   -7.6860    0.7287   -0.0026 H   0  0  0  0  0  0  0  0  0  0  0  0
   -7.7344   -1.6719    0.6892 H   0  0  0  0  0  0  0  0  0  0  0  0
   -5.5702   -2.8754    0.9905 H   0  0  0  0  0  0  0  0  0  0  0  0
   -0.1652   -2.0146    0.6302 H   0  0  0  0  0  0  0  0  0  0  0  0
    2.2598   -1.7531    0.5045 H   0  0  0  0  0  0  0  0  0  0  0  0
  1  2  1  0
  2  3  1  0
  3  4  2  0
  4  5  1  0
  5  6  1  0
  6  7  2  0
  7  8  1  0
  8  9  2  0
  9 10  1  0
 10 11  1  0
 11 12  2  0
 11 13  1  0
 13 14  2  0
 14 15  1  0
 15 16  2  0
 16 17  1  0
 17 18  2  0
  9 19  1  0
 19 20  2  0
  5 21  1  0
 21  2  2  0
 20  6  1  0
 18 13  1  0
  1 22  1  0
  1 23  1  0
  1 24  1  0
  3 25  1  0
  4 26  1  0
  7 27  1  0
  8 28  1  0
 10 29  1  0
 14 30  1  0
 15 31  1  0
 16 32  1  0
 17 33  1  0
 19 34  1  0
 20 35  1  0
M  END
$$$$
