
     RDKit          3D

 44 46  0  0  0  0  0  0  0  0999 V2000
   -4.5351    3.2051    0.0879 C   0  0  0  0  0  0  0  0  0  0  0  0
   -4.7108    1.8020    0.2149 O   0  0  0  0  0  0  0  0  0  0  0  0
   -3.5989    1.0027    0.0803 C   0  0  0  0  0  0  0  0  0  0  0  0
   -2.2953    1.4963   -0.0789 C   0  0  0  0  0  0  0  0  0  0  0  0
   -1.2564    0.5869   -0.2036 C   0  0  0  0  0  0  0  0  0  0  0  0
   -1.5197   -0.8065   -0.1706 C   0  0  0  0  0  0  0  0  0  0  0  0
   -2.7894   -1.3155   -0.0076 C   0  0  0  0  0  0  0  0  0  0  0  0
   -3.8445   -0.4015    0.1180 C   0  0  0  0  0  0  0  0  0  0  0  0
   -5.1605   -0.7670    0.2873 O   0  0  0  0  0  0  0  0  0  0  0  0
   -5.4734   -2.1513    0.2374 C   0  0  0  0  0  0  0  0  0  0  0  0
   -0.2459   -1.4218   -0.3281 C   0  0  0  0  0  0  0  0  0  0  0  0
    0.7411   -0.4795   -0.4380 C   0  0  0  0  0  0  0  0  0  0  0  0
    1.9418   -1.2013   -0.6124 C   0  0  0  0  0  0  0  0  0  0  0  0
    3.3131   -0.6859   -0.7880 C   0  0  0  0  0  0  0  0  0  0  0  0
    4.2005   -1.3037   -1.3714 O   0  0  0  0  0  0  0  0  0  0  0  0
    3.5312    0.5613   -0.2186 N   0  0  0  0  0  0  0  0  0  0  0  0
    4.8626    1.1469   -0.1746 C   0  0  0  0  0  0  0  0  0  0  0  0
    4.7567    2.6618   -0.0354 C   0  0  0  0  0  0  0  0  0  0  0  0
    5.6777    0.5544    0.9728 C   0  0  0  0  0  0  0  0  0  0  0  0
    1.6746   -2.5314   -0.6095 N   0  0  0  0  0  0  0  0  0  0  0  0
    0.3315   -2.6307   -0.4537 N   0  0  0  0  0  0  0  0  0  0  0  0
   -0.2884   -3.9300   -0.4412 C   0  0  0  0  0  0  0  0  0  0  0  0
    0.2362    0.9217   -0.3802 C   0  0  0  0  0  0  0  0  0  0  0  0
   -3.9082    3.5974    0.8948 H   0  0  0  0  0  0  0  0  0  0  0  0
   -5.5197    3.6756    0.1747 H   0  0  0  0  0  0  0  0  0  0  0  0
   -4.1276    3.4662   -0.8944 H   0  0  0  0  0  0  0  0  0  0  0  0
   -2.0758    2.5556   -0.1058 H   0  0  0  0  0  0  0  0  0  0  0  0
   -2.9430   -2.3842    0.0256 H   0  0  0  0  0  0  0  0  0  0  0  0
   -5.0050   -2.6913    1.0668 H   0  0  0  0  0  0  0  0  0  0  0  0
   -5.1931   -2.5860   -0.7278 H   0  0  0  0  0  0  0  0  0  0  0  0
   -6.5575   -2.2536    0.3454 H   0  0  0  0  0  0  0  0  0  0  0  0
    2.8659    0.8610    0.4796 H   0  0  0  0  0  0  0  0  0  0  0  0
    5.3693    0.9165   -1.1190 H   0  0  0  0  0  0  0  0  0  0  0  0
    4.2442    2.9412    0.8917 H   0  0  0  0  0  0  0  0  0  0  0  0
    4.1864    3.0877   -0.8684 H   0  0  0  0  0  0  0  0  0  0  0  0
    5.7490    3.1250   -0.0314 H   0  0  0  0  0  0  0  0  0  0  0  0
    5.1950    0.7423    1.9387 H   0  0  0  0  0  0  0  0  0  0  0  0
    5.7829   -0.5304    0.8647 H   0  0  0  0  0  0  0  0  0  0  0  0
    6.6825    0.9885    1.0024 H   0  0  0  0  0  0  0  0  0  0  0  0
   -1.2749   -3.8639   -0.9044 H   0  0  0  0  0  0  0  0  0  0  0  0
   -0.3721   -4.2576    0.5972 H   0  0  0  0  0  0  0  0  0  0  0  0
    0.3296   -4.6294   -1.0100 H   0  0  0  0  0  0  0  0  0  0  0  0
    0.4090    1.4622   -1.3141 H   0  0  0  0  0  0  0  0  0  0  0  0
    0.6144    1.4643    0.4894 H   0  0  0  0  0  0  0  0  0  0  0  0
  1  2  1  0
  2  3  1  0
  3  4  2  0
  4  5  1  0
  5  6  2  0
  6  7  1  0
  7  8  2  0
  8  9  1  0
  9 10  1  0
  6 11  1  0
 11 12  2  0
 12 13  1  0
 13 14  1  0
 14 15  2  0
 14 16  1  0
 16 17  1  0
 17 18  1  0
 17 19  1  0
 13 20  2  0
 20 21  1  0
 21 22  1  0
 12 23  1  0
  8  3  1  0
 21 11  1  0
 23  5  1  0
  1 24  1  0
  1 25  1  0
  1 26  1  0
  4 27  1  0
  7 28  1  0
 10 29  1  0
 10 30  1  0
 10 31  1  0
 16 32  1  0
 17 33  1  0
 18 34  1  0
 18 35  1  0
 18 36  1  0
 19 37  1  0
 19 38  1  0
 19 39  1  0
 22 40  1  0
 22 41  1  0
 22 42  1  0
 23 43  1  0
 23 44  1  0
M  END
$$$$
