
     RDKit          3D

 45 46  0  0  0  0  0  0  0  0999 V2000
   -1.4772    2.0067   -0.7982 C   0  0  0  0  0  0  0  0  0  0  0  0
   -0.7843    1.3774    0.2782 N   0  0  0  0  0  0  0  0  0  0  0  0
    0.4263    2.0152    0.6666 C   0  0  0  0  0  0  0  0  0  0  0  0
   -0.7125   -0.0630    0.1645 C   0  0  0  0  0  0  0  0  0  0  0  0
    0.0318   -0.5345   -1.0273 C   0  0  0  0  0  0  0  0  0  0  0  0
    1.4198   -0.0802   -1.0890 N   0  0  0  0  0  0  0  0  0  0  0  0
    2.3506   -0.4256   -0.0856 C   0  0  0  0  0  0  0  0  0  0  0  0
    1.9081   -1.1554    0.8680 O   0  0  0  0  0  0  0  0  0  0  0  0
    3.7374   -0.0305   -0.0467 C   0  0  0  0  0  0  0  0  0  0  0  0
    4.5634   -0.4132    0.9962 C   0  0  0  0  0  0  0  0  0  0  0  0
    5.8813   -0.0583    1.0646 C   0  0  0  0  0  0  0  0  0  0  0  0
    6.3874    0.7135    0.0407 C   0  0  0  0  0  0  0  0  0  0  0  0
    5.6077    1.1205   -1.0192 C   0  0  0  0  0  0  0  0  0  0  0  0
    6.0808    1.8757   -2.0313 F   0  0  0  0  0  0  0  0  0  0  0  0
    4.2585    0.7380   -1.0577 C   0  0  0  0  0  0  0  0  0  0  0  0
   -2.0859   -0.6311    0.1591 C   0  0  0  0  0  0  0  0  0  0  0  0
   -2.5010   -1.5280   -0.7931 C   0  0  0  0  0  0  0  0  0  0  0  0
   -3.7850   -2.0694   -0.7953 C   0  0  0  0  0  0  0  0  0  0  0  0
   -4.6459   -1.6776    0.1976 C   0  0  0  0  0  0  0  0  0  0  0  0
   -4.2657   -0.7697    1.1828 C   0  0  0  0  0  0  0  0  0  0  0  0
   -2.9991   -0.2628    1.1493 C   0  0  0  0  0  0  0  0  0  0  0  0
   -5.3584   -0.5724    2.0483 O   0  0  0  0  0  0  0  0  0  0  0  0
   -6.2322   -1.6833    1.8594 C   0  0  0  0  0  0  0  0  0  0  0  0
   -5.9693   -2.0124    0.4895 O   0  0  0  0  0  0  0  0  0  0  0  0
    0.6860    0.0000    0.0000 Cl  0  0  0  0  0  0  0  0  0  0  0  0
   -1.5451    3.0900   -0.5673 H   0  0  0  0  0  0  0  0  0  0  0  0
   -0.9940    1.8957   -1.7884 H   0  0  0  0  0  0  0  0  0  0  0  0
   -2.5177    1.6400   -0.8691 H   0  0  0  0  0  0  0  0  0  0  0  0
    0.8514    1.4643    1.5299 H   0  0  0  0  0  0  0  0  0  0  0  0
    0.1451    3.0253    1.0869 H   0  0  0  0  0  0  0  0  0  0  0  0
    1.1436    2.2097   -0.1386 H   0  0  0  0  0  0  0  0  0  0  0  0
   -0.2469   -0.4210    1.1035 H   0  0  0  0  0  0  0  0  0  0  0  0
    0.0303   -1.6728   -1.0570 H   0  0  0  0  0  0  0  0  0  0  0  0
   -0.4715   -0.2177   -1.9606 H   0  0  0  0  0  0  0  0  0  0  0  0
    1.7502    0.5112   -1.8803 H   0  0  0  0  0  0  0  0  0  0  0  0
    4.1627   -1.0232    1.8052 H   0  0  0  0  0  0  0  0  0  0  0  0
    6.5288   -0.3521    1.8722 H   0  0  0  0  0  0  0  0  0  0  0  0
    7.4389    1.0273    0.0439 H   0  0  0  0  0  0  0  0  0  0  0  0
    3.6658    1.0783   -1.9146 H   0  0  0  0  0  0  0  0  0  0  0  0
   -1.8440   -1.8655   -1.6129 H   0  0  0  0  0  0  0  0  0  0  0  0
   -4.1077   -2.7718   -1.5422 H   0  0  0  0  0  0  0  0  0  0  0  0
   -2.6606    0.4553    1.9081 H   0  0  0  0  0  0  0  0  0  0  0  0
   -7.2645   -1.3866    2.0352 H   0  0  0  0  0  0  0  0  0  0  0  0
   -5.9010   -2.5659    2.4419 H   0  0  0  0  0  0  0  0  0  0  0  0
   -0.6860    0.0000    0.0000 H   0  0  0  0  0  0  0  0  0  0  0  0
  1  2  1  0
  2  3  1  0
  2  4  1  0
  4  5  1  0
  5  6  1  0
  6  7  1  0
  7  8  2  0
  7  9  1  0
  9 10  2  0
 10 11  1  0
 11 12  2  0
 12 13  1  0
 13 14  1  0
 13 15  2  0
  4 16  1  0
 16 17  2  0
 17 18  1  0
 18 19  2  0
 19 20  1  0
 20 21  2  0
 20 22  1  0
 22 23  1  0
 23 24  1  0
 15  9  1  0
 21 16  1  0
 24 19  1  0
  1 26  1  0
  1 27  1  0
  1 28  1  0
  3 29  1  0
  3 30  1  0
  3 31  1  0
  4 32  1  0
  5 33  1  0
  5 34  1  0
  6 35  1  0
 10 36  1  0
 11 37  1  0
 12 38  1  0
 15 39  1  0
 17 40  1  0
 18 41  1  0
 21 42  1  0
 23 43  1  0
 23 44  1  0
 25 45  1  0
M  END
$$$$
