
     RDKit          3D

 41 42  0  0  0  0  0  0  0  0999 V2000
   -4.1987    0.7606    1.6428 C   0  0  0  0  0  0  0  0  0  0  0  0
   -2.9923   -0.1512    1.4598 C   0  0  0  0  0  0  0  0  0  0  0  0
   -2.9240   -0.9582    0.1421 C   0  0  1  0  0  0  0  0  0  0  0  0
   -4.2895   -1.4835   -0.3115 C   0  0  0  0  0  0  0  0  0  0  0  0
   -2.1375   -0.2650   -1.0109 C   0  0  1  0  0  0  0  0  0  0  0  0
   -2.6038    1.1551   -1.3930 C   0  0  0  0  0  0  0  0  0  0  0  0
   -3.9368    1.1712   -1.8862 O   0  0  0  0  0  0  0  0  0  0  0  0
   -0.7009   -0.2691   -0.7083 N   0  0  0  0  0  0  0  0  0  0  0  0
    0.2470   -0.1813   -1.7065 C   0  0  0  0  0  0  0  0  0  0  0  0
   -0.0330   -0.1058   -2.8969 O   0  0  0  0  0  0  0  0  0  0  0  0
    1.6697   -0.2119   -1.2746 C   0  0  0  0  0  0  0  0  0  0  0  0
    2.6152   -0.7662   -2.1471 C   0  0  0  0  0  0  0  0  0  0  0  0
    3.9620   -0.8165   -1.7824 C   0  0  0  0  0  0  0  0  0  0  0  0
    4.3724   -0.2951   -0.5567 C   0  0  0  0  0  0  0  0  0  0  0  0
    3.4324    0.2731    0.3068 C   0  0  0  0  0  0  0  0  0  0  0  0
    2.0814    0.3188   -0.0449 C   0  0  0  0  0  0  0  0  0  0  0  0
    3.8350    0.7860    1.5389 N   0  0  0  0  0  0  0  0  0  0  0  0
    5.1490    0.8136    1.9120 C   0  0  0  0  0  0  0  0  0  0  0  0
    5.4891    1.2435    3.0116 O   0  0  0  0  0  0  0  0  0  0  0  0
    6.1438    0.3336    0.8565 C   0  0  0  0  0  0  0  0  0  0  0  0
    5.7020   -0.4114   -0.2674 O   0  0  0  0  0  0  0  0  0  0  0  0
   -4.1015    1.3179    2.5806 H   0  0  0  0  0  0  0  0  0  0  0  0
   -5.1272    0.1847    1.7044 H   0  0  0  0  0  0  0  0  0  0  0  0
   -4.2977    1.4879    0.8350 H   0  0  0  0  0  0  0  0  0  0  0  0
   -2.0763    0.4364    1.5906 H   0  0  0  0  0  0  0  0  0  0  0  0
   -3.0051   -0.8683    2.2915 H   0  0  0  0  0  0  0  0  0  0  0  0
   -2.3407   -1.8596    0.3871 H   0  0  0  0  0  0  0  0  0  0  0  0
   -4.1825   -2.1338   -1.1864 H   0  0  0  0  0  0  0  0  0  0  0  0
   -4.9832   -0.6814   -0.5750 H   0  0  0  0  0  0  0  0  0  0  0  0
   -4.7529   -2.0782    0.4834 H   0  0  0  0  0  0  0  0  0  0  0  0
   -2.2614   -0.8949   -1.9027 H   0  0  0  0  0  0  0  0  0  0  0  0
   -2.5359    1.8357   -0.5392 H   0  0  0  0  0  0  0  0  0  0  0  0
   -1.9635    1.5828   -2.1724 H   0  0  0  0  0  0  0  0  0  0  0  0
   -3.9178    0.7387   -2.7587 H   0  0  0  0  0  0  0  0  0  0  0  0
   -0.4126   -0.4572    0.2419 H   0  0  0  0  0  0  0  0  0  0  0  0
    2.3031   -1.1661   -3.1105 H   0  0  0  0  0  0  0  0  0  0  0  0
    4.6904   -1.2601   -2.4568 H   0  0  0  0  0  0  0  0  0  0  0  0
    1.3652    0.7901    0.6205 H   0  0  0  0  0  0  0  0  0  0  0  0
    3.1688    1.1527    2.2054 H   0  0  0  0  0  0  0  0  0  0  0  0
    6.6666    1.2208    0.4804 H   0  0  0  0  0  0  0  0  0  0  0  0
    6.8817   -0.2884    1.3755 H   0  0  0  0  0  0  0  0  0  0  0  0
  1  2  1  0
  2  3  1  0
  3  4  1  0
  3  5  1  0
  5  6  1  0
  6  7  1  0
  5  8  1  0
  8  9  1  0
  9 10  2  0
  9 11  1  0
 11 12  2  0
 12 13  1  0
 13 14  2  0
 14 15  1  0
 15 16  2  0
 15 17  1  0
 17 18  1  0
 18 19  2  0
 18 20  1  0
 20 21  1  0
 16 11  1  0
 21 14  1  0
  1 22  1  0
  1 23  1  0
  1 24  1  0
  2 25  1  0
  2 26  1  0
  3 27  1  1
  4 28  1  0
  4 29  1  0
  4 30  1  0
  5 31  1  6
  6 32  1  0
  6 33  1  0
  7 34  1  0
  8 35  1  0
 12 36  1  0
 13 37  1  0
 16 38  1  0
 17 39  1  0
 20 40  1  0
 20 41  1  0
M  END
$$$$
