
     RDKit          3D

 65 69  0  0  0  0  0  0  0  0999 V2000
   -8.2731   -0.5420    1.3112 C   0  0  0  0  0  0  0  0  0  0  0  0
   -7.0018    0.1050    1.2911 O   0  0  0  0  0  0  0  0  0  0  0  0
   -6.9779    1.2429    0.5198 C   0  0  0  0  0  0  0  0  0  0  0  0
   -7.9450    2.2442    0.6835 C   0  0  0  0  0  0  0  0  0  0  0  0
   -7.8234    3.4597    0.0086 C   0  0  0  0  0  0  0  0  0  0  0  0
   -6.7227    3.6938   -0.8100 C   0  0  0  0  0  0  0  0  0  0  0  0
   -5.7448    2.7084   -0.9629 C   0  0  0  0  0  0  0  0  0  0  0  0
   -5.8674    1.4650   -0.3182 C   0  0  0  0  0  0  0  0  0  0  0  0
   -4.8503    0.4696   -0.5199 N   0  0  0  0  0  0  0  0  0  0  0  0
   -3.5089    0.8159   -0.4103 C   0  0  0  0  0  0  0  0  0  0  0  0
   -2.5044   -0.0585   -0.5634 C   0  0  0  0  0  0  0  0  0  0  0  0
   -1.1547    0.5015   -0.2921 C   0  0  0  0  0  0  0  0  0  0  0  0
   -0.7104    1.4480   -0.9309 O   0  0  0  0  0  0  0  0  0  0  0  0
   -0.5096   -0.0879    0.7650 N   0  0  0  0  0  0  0  0  0  0  0  0
    0.8619    0.2513    1.0985 C   0  0  0  0  0  0  0  0  0  0  0  0
    1.8335   -0.8237    0.5900 C   0  0  0  0  0  0  0  0  0  0  0  0
    1.4272   -1.9369    0.2453 O   0  0  0  0  0  0  0  0  0  0  0  0
    3.1821   -0.5023    0.5824 N   0  0  0  0  0  0  0  0  0  0  0  0
    4.1413   -1.4632    0.0303 C   0  0  0  0  0  0  0  0  0  0  0  0
    5.3909   -0.7917   -0.5698 C   0  0  0  0  0  0  0  0  0  0  0  0
    6.0500    0.0986    0.4019 N   0  0  0  0  0  0  0  0  0  0  0  0
    7.4058    0.3787    0.3155 C   0  0  0  0  0  0  0  0  0  0  0  0
    8.1442    0.8245    1.4257 C   0  0  0  0  0  0  0  0  0  0  0  0
    9.5131    1.1097    1.3430 C   0  0  0  0  0  0  0  0  0  0  0  0
   10.1855    0.9570    0.1373 C   0  0  0  0  0  0  0  0  0  0  0  0
    9.4872    0.5166   -0.9798 C   0  0  0  0  0  0  0  0  0  0  0  0
    8.1183    0.2323   -0.8868 C   0  0  0  0  0  0  0  0  0  0  0  0
    5.2221    0.6595    1.4793 C   0  0  0  0  0  0  0  0  0  0  0  0
    3.7417    0.7659    1.0635 C   0  0  0  0  0  0  0  0  0  0  0  0
   -2.8039   -1.4530   -0.8986 C   0  0  0  0  0  0  0  0  0  0  0  0
   -1.8032   -2.4083   -1.1317 C   0  0  0  0  0  0  0  0  0  0  0  0
   -2.1330   -3.7314   -1.4393 C   0  0  0  0  0  0  0  0  0  0  0  0
   -3.4670   -4.1177   -1.5296 C   0  0  0  0  0  0  0  0  0  0  0  0
   -4.4731   -3.1756   -1.3262 C   0  0  0  0  0  0  0  0  0  0  0  0
   -4.1451   -1.8456   -1.0180 C   0  0  0  0  0  0  0  0  0  0  0  0
   -5.2397   -0.8436   -0.8595 C   0  0  0  0  0  0  0  0  0  0  0  0
   -6.3899   -1.2131   -1.0979 O   0  0  0  0  0  0  0  0  0  0  0  0
   -8.1118   -1.5877    1.5896 H   0  0  0  0  0  0  0  0  0  0  0  0
   -8.7639   -0.5275    0.3306 H   0  0  0  0  0  0  0  0  0  0  0  0
   -8.9177   -0.0894    2.0715 H   0  0  0  0  0  0  0  0  0  0  0  0
   -8.7816    2.1049    1.3607 H   0  0  0  0  0  0  0  0  0  0  0  0
   -8.5807    4.2306    0.1363 H   0  0  0  0  0  0  0  0  0  0  0  0
   -6.6240    4.6419   -1.3329 H   0  0  0  0  0  0  0  0  0  0  0  0
   -4.9071    2.9059   -1.6275 H   0  0  0  0  0  0  0  0  0  0  0  0
   -3.3017    1.8469   -0.1306 H   0  0  0  0  0  0  0  0  0  0  0  0
   -0.8780   -0.9521    1.1450 H   0  0  0  0  0  0  0  0  0  0  0  0
    1.1185    1.2237    0.6707 H   0  0  0  0  0  0  0  0  0  0  0  0
    0.9278    0.2935    2.1892 H   0  0  0  0  0  0  0  0  0  0  0  0
    4.4328   -2.1238    0.8565 H   0  0  0  0  0  0  0  0  0  0  0  0
    3.6550   -2.0817   -0.7327 H   0  0  0  0  0  0  0  0  0  0  0  0
    5.1039   -0.2037   -1.4504 H   0  0  0  0  0  0  0  0  0  0  0  0
    6.0692   -1.5897   -0.8947 H   0  0  0  0  0  0  0  0  0  0  0  0
    7.6698    0.9382    2.3965 H   0  0  0  0  0  0  0  0  0  0  0  0
   10.0494    1.4450    2.2270 H   0  0  0  0  0  0  0  0  0  0  0  0
   11.2467    1.1788    0.0686 H   0  0  0  0  0  0  0  0  0  0  0  0
    9.9998    0.3972   -1.9307 H   0  0  0  0  0  0  0  0  0  0  0  0
    7.6124   -0.0870   -1.7939 H   0  0  0  0  0  0  0  0  0  0  0  0
    5.3071    0.0182    2.3657 H   0  0  0  0  0  0  0  0  0  0  0  0
    5.5598    1.6671    1.7511 H   0  0  0  0  0  0  0  0  0  0  0  0
    3.6360    1.4844    0.2417 H   0  0  0  0  0  0  0  0  0  0  0  0
    3.1526    1.1346    1.9088 H   0  0  0  0  0  0  0  0  0  0  0  0
   -0.7484   -2.1437   -1.0925 H   0  0  0  0  0  0  0  0  0  0  0  0
   -1.3415   -4.4569   -1.6139 H   0  0  0  0  0  0  0  0  0  0  0  0
   -3.7242   -5.1459   -1.7720 H   0  0  0  0  0  0  0  0  0  0  0  0
   -5.5154   -3.4751   -1.4183 H   0  0  0  0  0  0  0  0  0  0  0  0
  1  2  1  0
  2  3  1  0
  3  4  2  0
  4  5  1  0
  5  6  2  0
  6  7  1  0
  7  8  2  0
  8  9  1  0
  9 10  1  0
 10 11  2  0
 11 12  1  0
 12 13  2  0
 12 14  1  0
 14 15  1  0
 15 16  1  0
 16 17  2  0
 16 18  1  0
 18 19  1  0
 19 20  1  0
 20 21  1  0
 21 22  1  0
 22 23  2  0
 23 24  1  0
 24 25  2  0
 25 26  1  0
 26 27  2  0
 21 28  1  0
 28 29  1  0
 11 30  1  0
 30 31  2  0
 31 32  1  0
 32 33  2  0
 33 34  1  0
 34 35  2  0
 35 36  1  0
 36 37  2  0
  8  3  1  0
 36  9  1  0
 29 18  1  0
 35 30  1  0
 27 22  1  0
  1 38  1  0
  1 39  1  0
  1 40  1  0
  4 41  1  0
  5 42  1  0
  6 43  1  0
  7 44  1  0
 10 45  1  0
 14 46  1  0
 15 47  1  0
 15 48  1  0
 19 49  1  0
 19 50  1  0
 20 51  1  0
 20 52  1  0
 23 53  1  0
 24 54  1  0
 25 55  1  0
 26 56  1  0
 27 57  1  0
 28 58  1  0
 28 59  1  0
 29 60  1  0
 29 61  1  0
 31 62  1  0
 32 63  1  0
 33 64  1  0
 34 65  1  0
M  END
$$$$
