
     RDKit          3D

 59 60  0  0  0  0  0  0  0  0999 V2000
   -5.9737   -2.4991   -2.0274 C   0  0  0  0  0  0  0  0  0  0  0  0
   -4.7199   -3.1091   -2.3004 O   0  0  0  0  0  0  0  0  0  0  0  0
   -3.5963   -2.5238   -1.7734 C   0  0  0  0  0  0  0  0  0  0  0  0
   -3.5969   -1.3599   -1.0012 C   0  0  0  0  0  0  0  0  0  0  0  0
   -2.4000   -0.8156   -0.4894 C   0  0  0  0  0  0  0  0  0  0  0  0
   -2.5160    0.4598    0.3202 C   0  0  0  0  0  0  0  0  0  0  0  0
   -2.2994    1.7031   -0.5477 C   0  0  0  0  0  0  0  0  0  0  0  0
   -2.3833    2.9333    0.2171 N   0  0  0  0  0  0  0  0  0  0  0  0
   -3.5987    3.4377    0.6242 C   0  0  0  0  0  0  0  0  0  0  0  0
   -3.5158    4.7670    1.3253 C   0  0  0  0  0  0  0  0  0  0  0  0
   -4.6666    2.8661    0.4320 O   0  0  0  0  0  0  0  0  0  0  0  0
   -1.1748   -1.4533   -0.7725 C   0  0  0  0  0  0  0  0  0  0  0  0
    0.0283   -0.8880   -0.2821 N   0  0  0  0  0  0  0  0  0  0  0  0
    1.3033   -1.4216   -0.3454 C   0  0  0  0  0  0  0  0  0  0  0  0
    1.6339   -2.5247   -0.7585 O   0  0  0  0  0  0  0  0  0  0  0  0
    2.3635   -0.5361    0.2059 C   0  0  0  0  0  0  0  0  0  0  0  0
    2.3765    0.8340   -0.0878 C   0  0  0  0  0  0  0  0  0  0  0  0
    3.3787    1.6434    0.4455 C   0  0  0  0  0  0  0  0  0  0  0  0
    3.4537    2.9950    0.2305 O   0  0  0  0  0  0  0  0  0  0  0  0
    3.0318    3.4372   -1.0558 C   0  0  0  0  0  0  0  0  0  0  0  0
    4.3435    1.0747    1.2941 C   0  0  0  0  0  0  0  0  0  0  0  0
    5.3492    1.8718    1.7936 O   0  0  0  0  0  0  0  0  0  0  0  0
    4.9737    2.3858    3.0694 C   0  0  0  0  0  0  0  0  0  0  0  0
    4.3607   -0.3067    1.5570 C   0  0  0  0  0  0  0  0  0  0  0  0
    5.3699   -0.7606    2.3654 O   0  0  0  0  0  0  0  0  0  0  0  0
    5.5377   -2.1689    2.4686 C   0  0  0  0  0  0  0  0  0  0  0  0
    3.3608   -1.1089    1.0068 C   0  0  0  0  0  0  0  0  0  0  0  0
   -1.1829   -2.6169   -1.5544 C   0  0  0  0  0  0  0  0  0  0  0  0
   -2.3765   -3.1603   -2.0499 C   0  0  0  0  0  0  0  0  0  0  0  0
   -2.4503   -4.2947   -2.8225 O   0  0  0  0  0  0  0  0  0  0  0  0
   -1.2540   -5.0349   -3.0224 C   0  0  0  0  0  0  0  0  0  0  0  0
   -6.1836   -2.4899   -0.9531 H   0  0  0  0  0  0  0  0  0  0  0  0
   -6.7501   -3.0990   -2.5117 H   0  0  0  0  0  0  0  0  0  0  0  0
   -6.0220   -1.4908   -2.4507 H   0  0  0  0  0  0  0  0  0  0  0  0
   -4.5282   -0.8452   -0.7802 H   0  0  0  0  0  0  0  0  0  0  0  0
   -1.8163    0.4459    1.1642 H   0  0  0  0  0  0  0  0  0  0  0  0
   -3.5049    0.4992    0.7948 H   0  0  0  0  0  0  0  0  0  0  0  0
   -1.3077    1.6866   -1.0127 H   0  0  0  0  0  0  0  0  0  0  0  0
   -3.0424    1.7454   -1.3530 H   0  0  0  0  0  0  0  0  0  0  0  0
   -1.5609    3.5183    0.2936 H   0  0  0  0  0  0  0  0  0  0  0  0
   -3.9275    5.5409    0.6724 H   0  0  0  0  0  0  0  0  0  0  0  0
   -2.4834    5.0293    1.5751 H   0  0  0  0  0  0  0  0  0  0  0  0
   -4.0937    4.7179    2.2521 H   0  0  0  0  0  0  0  0  0  0  0  0
   -0.0635   -0.0388    0.2553 H   0  0  0  0  0  0  0  0  0  0  0  0
    1.6160    1.2496   -0.7391 H   0  0  0  0  0  0  0  0  0  0  0  0
    1.9393    3.4862   -1.1059 H   0  0  0  0  0  0  0  0  0  0  0  0
    3.4173    4.4507   -1.2039 H   0  0  0  0  0  0  0  0  0  0  0  0
    3.4325    2.8058   -1.8568 H   0  0  0  0  0  0  0  0  0  0  0  0
    4.8154    1.5810    3.7954 H   0  0  0  0  0  0  0  0  0  0  0  0
    4.0779    3.0121    2.9980 H   0  0  0  0  0  0  0  0  0  0  0  0
    5.7948    3.0112    3.4329 H   0  0  0  0  0  0  0  0  0  0  0  0
    4.6978   -2.6236    3.0037 H   0  0  0  0  0  0  0  0  0  0  0  0
    5.6754   -2.6276    1.4837 H   0  0  0  0  0  0  0  0  0  0  0  0
    6.4446   -2.3558    3.0523 H   0  0  0  0  0  0  0  0  0  0  0  0
    3.3228   -2.1793    1.1893 H   0  0  0  0  0  0  0  0  0  0  0  0
   -0.2468   -3.1016   -1.7972 H   0  0  0  0  0  0  0  0  0  0  0  0
   -0.5311   -4.4620   -3.6119 H   0  0  0  0  0  0  0  0  0  0  0  0
   -0.8230   -5.3601   -2.0698 H   0  0  0  0  0  0  0  0  0  0  0  0
   -1.5090   -5.9322   -3.5941 H   0  0  0  0  0  0  0  0  0  0  0  0
  1  2  1  0
  2  3  1  0
  3  4  2  0
  4  5  1  0
  5  6  1  0
  6  7  1  0
  7  8  1  0
  8  9  1  0
  9 10  1  0
  9 11  2  0
  5 12  2  0
 12 13  1  0
 13 14  1  0
 14 15  2  0
 14 16  1  0
 16 17  2  0
 17 18  1  0
 18 19  1  0
 19 20  1  0
 18 21  2  0
 21 22  1  0
 22 23  1  0
 21 24  1  0
 24 25  1  0
 25 26  1  0
 24 27  2  0
 12 28  1  0
 28 29  2  0
 29 30  1  0
 30 31  1  0
 29  3  1  0
 27 16  1  0
  1 32  1  0
  1 33  1  0
  1 34  1  0
  4 35  1  0
  6 36  1  0
  6 37  1  0
  7 38  1  0
  7 39  1  0
  8 40  1  0
 10 41  1  0
 10 42  1  0
 10 43  1  0
 13 44  1  0
 17 45  1  0
 20 46  1  0
 20 47  1  0
 20 48  1  0
 23 49  1  0
 23 50  1  0
 23 51  1  0
 26 52  1  0
 26 53  1  0
 26 54  1  0
 27 55  1  0
 28 56  1  0
 31 57  1  0
 31 58  1  0
 31 59  1  0
M  END
$$$$
