
     RDKit          3D

 45 48  0  0  0  0  0  0  0  0999 V2000
    3.6305   -1.1788   -4.1800 C   0  0  0  0  0  0  0  0  0  0  0  0
    2.8520   -1.0547   -2.9557 N   0  0  0  0  0  0  0  0  0  0  0  0
    3.6446   -1.3816   -1.7481 C   0  0  0  0  0  0  0  0  0  0  0  0
    3.4714   -0.4200   -0.5447 C   0  0  0  0  0  0  0  0  0  0  0  0
    2.0854   -0.0043   -0.3531 N   0  0  0  0  0  0  0  0  0  0  0  0
    1.6293    0.2455    0.9357 C   0  0  0  0  0  0  0  0  0  0  0  0
    2.3427    0.2241    1.9367 O   0  0  0  0  0  0  0  0  0  0  0  0
    0.1901    0.5299    1.1278 C   0  0  0  0  0  0  0  0  0  0  0  0
   -0.7081   -0.5027    0.8529 C   0  0  0  0  0  0  0  0  0  0  0  0
   -2.0573   -0.2853    1.0917 C   0  0  0  0  0  0  0  0  0  0  0  0
   -3.0811   -1.3191    0.8273 C   0  0  0  0  0  0  0  0  0  0  0  0
   -4.3479   -1.2827    1.4309 C   0  0  0  0  0  0  0  0  0  0  0  0
   -5.2788   -2.2737    1.1270 C   0  0  0  0  0  0  0  0  0  0  0  0
   -4.9334   -3.2750    0.2234 C   0  0  0  0  0  0  0  0  0  0  0  0
   -3.6581   -3.2556   -0.3189 C   0  0  0  0  0  0  0  0  0  0  0  0
   -2.7304   -2.3127   -0.0397 N   0  0  0  0  0  0  0  0  0  0  0  0
   -2.5069    0.8972    1.5881 N   0  0  0  0  0  0  0  0  0  0  0  0
   -1.6373    1.8879    1.8551 C   0  0  0  0  0  0  0  0  0  0  0  0
   -2.1372    3.0886    2.3591 C   0  0  0  0  0  0  0  0  0  0  0  0
   -1.3027    4.1682    2.6571 C   0  0  0  0  0  0  0  0  0  0  0  0
    0.0697    4.0502    2.4573 C   0  0  0  0  0  0  0  0  0  0  0  0
    0.5945    2.8579    1.9597 C   0  0  0  0  0  0  0  0  0  0  0  0
   -0.2506    1.7637    1.6477 C   0  0  0  0  0  0  0  0  0  0  0  0
    1.3344    0.3399   -1.5683 C   0  0  0  0  0  0  0  0  0  0  0  0
    2.1880    0.2556   -2.8501 C   0  0  0  0  0  0  0  0  0  0  0  0
    4.0279   -2.1940   -4.2784 H   0  0  0  0  0  0  0  0  0  0  0  0
    3.0015   -0.9966   -5.0623 H   0  0  0  0  0  0  0  0  0  0  0  0
    4.4642   -0.4754   -4.2025 H   0  0  0  0  0  0  0  0  0  0  0  0
    4.7187   -1.4527   -1.9747 H   0  0  0  0  0  0  0  0  0  0  0  0
    3.3299   -2.3833   -1.4315 H   0  0  0  0  0  0  0  0  0  0  0  0
    4.0539    0.4949   -0.7044 H   0  0  0  0  0  0  0  0  0  0  0  0
    3.8536   -0.8935    0.3638 H   0  0  0  0  0  0  0  0  0  0  0  0
   -0.3567   -1.4633    0.4785 H   0  0  0  0  0  0  0  0  0  0  0  0
   -4.6051   -0.4921    2.1336 H   0  0  0  0  0  0  0  0  0  0  0  0
   -6.2644   -2.2569    1.5889 H   0  0  0  0  0  0  0  0  0  0  0  0
   -5.6375   -4.0561   -0.0412 H   0  0  0  0  0  0  0  0  0  0  0  0
   -3.3378   -4.0202   -1.0269 H   0  0  0  0  0  0  0  0  0  0  0  0
   -3.2096    3.1868    2.5202 H   0  0  0  0  0  0  0  0  0  0  0  0
   -1.7279    5.0919    3.0407 H   0  0  0  0  0  0  0  0  0  0  0  0
    0.7311    4.8798    2.6928 H   0  0  0  0  0  0  0  0  0  0  0  0
    1.6750    2.7790    1.8192 H   0  0  0  0  0  0  0  0  0  0  0  0
    0.4840   -0.3472   -1.6473 H   0  0  0  0  0  0  0  0  0  0  0  0
    0.9358    1.3526   -1.4569 H   0  0  0  0  0  0  0  0  0  0  0  0
    2.9319    1.0634   -2.8508 H   0  0  0  0  0  0  0  0  0  0  0  0
    1.5288    0.4201   -3.7164 H   0  0  0  0  0  0  0  0  0  0  0  0
  1  2  1  0
  2  3  1  0
  3  4  1  0
  4  5  1  0
  5  6  1  0
  6  7  2  0
  6  8  1  0
  8  9  2  0
  9 10  1  0
 10 11  1  0
 11 12  2  0
 12 13  1  0
 13 14  2  0
 14 15  1  0
 15 16  2  0
 10 17  2  0
 17 18  1  0
 18 19  2  0
 19 20  1  0
 20 21  2  0
 21 22  1  0
 22 23  2  0
  5 24  1  0
 24 25  1  0
 25  2  1  0
 23  8  1  0
 16 11  1  0
 23 18  1  0
  1 26  1  0
  1 27  1  0
  1 28  1  0
  3 29  1  0
  3 30  1  0
  4 31  1  0
  4 32  1  0
  9 33  1  0
 12 34  1  0
 13 35  1  0
 14 36  1  0
 15 37  1  0
 19 38  1  0
 20 39  1  0
 21 40  1  0
 22 41  1  0
 24 42  1  0
 24 43  1  0
 25 44  1  0
 25 45  1  0
M  END
$$$$
