
     RDKit          3D

 51 54  0  0  0  0  0  0  0  0999 V2000
    5.9817   -0.0434   -3.4923 C   0  0  0  0  0  0  0  0  0  0  0  0
    5.7255    0.6575   -2.2818 O   0  0  0  0  0  0  0  0  0  0  0  0
    4.7935    0.1155   -1.4408 C   0  0  0  0  0  0  0  0  0  0  0  0
    4.5800    0.8340   -0.2635 C   0  0  0  0  0  0  0  0  0  0  0  0
    3.6538    0.3932    0.6861 C   0  0  0  0  0  0  0  0  0  0  0  0
    2.9262   -0.7890    0.4803 C   0  0  0  0  0  0  0  0  0  0  0  0
    1.8979   -1.2924    1.4803 C   0  0  0  0  0  0  0  0  0  0  0  0
    2.3625   -1.1100    2.8512 N   0  0  0  0  0  0  0  0  0  0  0  0
    1.8952   -0.1879    3.7496 C   0  0  0  0  0  0  0  0  0  0  0  0
    2.5111   -0.0073    4.7972 O   0  0  0  0  0  0  0  0  0  0  0  0
    0.7140    0.4710    3.4091 N   0  0  0  0  0  0  0  0  0  0  0  0
    0.1363    1.4067    4.3608 C   0  0  0  0  0  0  0  0  0  0  0  0
    0.0521    0.1820    2.2357 C   0  0  0  0  0  0  0  0  0  0  0  0
    0.5872   -0.6431    1.3418 C   0  0  0  0  0  0  0  0  0  0  0  0
   -0.3789   -0.8103    0.2548 C   0  0  0  0  0  0  0  0  0  0  0  0
   -0.1848   -1.5694   -0.6783 O   0  0  0  0  0  0  0  0  0  0  0  0
   -1.4714    0.0137    0.5524 N   0  0  0  0  0  0  0  0  0  0  0  0
   -2.6486    0.1842   -0.2283 C   0  0  0  0  0  0  0  0  0  0  0  0
   -3.6750    1.0338    0.2055 C   0  0  0  0  0  0  0  0  0  0  0  0
   -4.8384    1.2140   -0.5514 C   0  0  0  0  0  0  0  0  0  0  0  0
   -5.0129    0.5500   -1.7699 C   0  0  0  0  0  0  0  0  0  0  0  0
   -6.2769    0.7621   -2.5559 C   0  0  0  0  0  0  0  0  0  0  0  0
   -3.9993   -0.3112   -2.2226 C   0  0  0  0  0  0  0  0  0  0  0  0
   -4.1257   -1.0542   -3.5258 C   0  0  0  0  0  0  0  0  0  0  0  0
   -2.8318   -0.4770   -1.4493 C   0  0  0  0  0  0  0  0  0  0  0  0
   -1.2774    0.6946    1.8161 C   0  0  0  0  0  0  0  0  0  0  0  0
    3.1376   -1.4962   -0.7142 C   0  0  0  0  0  0  0  0  0  0  0  0
    4.0645   -1.0509   -1.6648 C   0  0  0  0  0  0  0  0  0  0  0  0
    5.0868   -0.0832   -4.1224 H   0  0  0  0  0  0  0  0  0  0  0  0
    6.3710   -1.0473   -3.2931 H   0  0  0  0  0  0  0  0  0  0  0  0
    6.7509    0.5082   -4.0416 H   0  0  0  0  0  0  0  0  0  0  0  0
    5.1394    1.7489   -0.0835 H   0  0  0  0  0  0  0  0  0  0  0  0
    3.5102    0.9861    1.5868 H   0  0  0  0  0  0  0  0  0  0  0  0
    1.7906   -2.3781    1.3667 H   0  0  0  0  0  0  0  0  0  0  0  0
    3.2444   -1.5296    3.1106 H   0  0  0  0  0  0  0  0  0  0  0  0
   -0.1118    2.3418    3.8490 H   0  0  0  0  0  0  0  0  0  0  0  0
    0.8273    1.6353    5.1766 H   0  0  0  0  0  0  0  0  0  0  0  0
   -0.7708    0.9651    4.7853 H   0  0  0  0  0  0  0  0  0  0  0  0
   -3.6057    1.5818    1.1397 H   0  0  0  0  0  0  0  0  0  0  0  0
   -5.6108    1.8823   -0.1762 H   0  0  0  0  0  0  0  0  0  0  0  0
   -6.8463   -0.1706   -2.6165 H   0  0  0  0  0  0  0  0  0  0  0  0
   -6.0447    1.1152   -3.5656 H   0  0  0  0  0  0  0  0  0  0  0  0
   -6.9200    1.5152   -2.0872 H   0  0  0  0  0  0  0  0  0  0  0  0
   -4.1583   -0.3486   -4.3619 H   0  0  0  0  0  0  0  0  0  0  0  0
   -3.2775   -1.7268   -3.6919 H   0  0  0  0  0  0  0  0  0  0  0  0
   -5.0332   -1.6666   -3.5291 H   0  0  0  0  0  0  0  0  0  0  0  0
   -2.0663   -1.1436   -1.8363 H   0  0  0  0  0  0  0  0  0  0  0  0
   -2.0601    0.4013    2.5232 H   0  0  0  0  0  0  0  0  0  0  0  0
   -1.2614    1.7779    1.6596 H   0  0  0  0  0  0  0  0  0  0  0  0
    2.5646   -2.3986   -0.9247 H   0  0  0  0  0  0  0  0  0  0  0  0
    4.1836   -1.6363   -2.5704 H   0  0  0  0  0  0  0  0  0  0  0  0
  1  2  1  0
  2  3  1  0
  3  4  2  0
  4  5  1  0
  5  6  2  0
  6  7  1  0
  7  8  1  0
  8  9  1  0
  9 10  2  0
  9 11  1  0
 11 12  1  0
 11 13  1  0
 13 14  2  0
 14 15  1  0
 15 16  2  0
 15 17  1  0
 17 18  1  0
 18 19  2  0
 19 20  1  0
 20 21  2  0
 21 22  1  0
 21 23  1  0
 23 24  1  0
 23 25  2  0
 17 26  1  0
  6 27  1  0
 27 28  2  0
 28  3  1  0
 14  7  1  0
 25 18  1  0
 26 13  1  0
  1 29  1  0
  1 30  1  0
  1 31  1  0
  4 32  1  0
  5 33  1  0
  7 34  1  0
  8 35  1  0
 12 36  1  0
 12 37  1  0
 12 38  1  0
 19 39  1  0
 20 40  1  0
 22 41  1  0
 22 42  1  0
 22 43  1  0
 24 44  1  0
 24 45  1  0
 24 46  1  0
 25 47  1  0
 26 48  1  0
 26 49  1  0
 27 50  1  0
 28 51  1  0
M  END
$$$$
