
     RDKit          3D

 41 42  0  0  0  0  0  0  0  0999 V2000
    5.9079    1.1566   -1.3272 C   0  0  0  0  0  0  0  0  0  0  0  0
    5.6579    0.7347    0.0080 O   0  0  0  0  0  0  0  0  0  0  0  0
    5.6416   -0.6919    0.1516 C   0  0  0  0  0  0  0  0  0  0  0  0
    4.3119   -1.2914   -0.3066 C   0  0  0  0  0  0  0  0  0  0  0  0
    3.1937   -0.6681    0.3790 N   0  0  0  0  0  0  0  0  0  0  0  0
    1.9257   -1.1940    0.2737 C   0  0  0  0  0  0  0  0  0  0  0  0
    1.6749   -2.2595   -0.2768 O   0  0  0  0  0  0  0  0  0  0  0  0
    0.8260   -0.3760    0.8498 C   0  0  0  0  0  0  0  0  0  0  0  0
    1.0316    0.4628    1.9528 C   0  0  0  0  0  0  0  0  0  0  0  0
   -0.0315    1.2071    2.4707 C   0  0  0  0  0  0  0  0  0  0  0  0
   -1.3003    1.1103    1.8937 C   0  0  0  0  0  0  0  0  0  0  0  0
   -2.5868    2.0319    2.5902 Cl  0  0  0  0  0  0  0  0  0  0  0  0
   -1.5163    0.2568    0.7995 C   0  0  0  0  0  0  0  0  0  0  0  0
   -2.8143    0.1968    0.1735 N   0  0  0  0  0  0  0  0  0  0  0  0
   -3.4653   -1.1306    0.0998 C   0  0  0  0  0  0  0  0  0  0  0  0
   -4.9738   -0.9444   -0.0689 C   0  0  0  0  0  0  0  0  0  0  0  0
   -5.3385   -0.1739   -1.3400 C   0  0  0  0  0  0  0  0  0  0  0  0
   -4.7185    1.2174   -1.3729 C   0  0  0  0  0  0  0  0  0  0  0  0
   -2.9419    1.1375   -1.2460 S   0  0  0  0  0  6  0  0  0  0  0  0
   -2.4400    2.4687   -0.9811 O   0  0  0  0  0  0  0  0  0  0  0  0
   -2.4320    0.3545   -2.3528 O   0  0  0  0  0  0  0  0  0  0  0  0
   -0.4480   -0.4806    0.2773 C   0  0  0  0  0  0  0  0  0  0  0  0
    5.0974    0.8496   -1.9932 H   0  0  0  0  0  0  0  0  0  0  0  0
    6.8629    0.7594   -1.6841 H   0  0  0  0  0  0  0  0  0  0  0  0
    5.9624    2.2486   -1.3345 H   0  0  0  0  0  0  0  0  0  0  0  0
    6.4856   -1.1418   -0.3832 H   0  0  0  0  0  0  0  0  0  0  0  0
    5.7803   -0.8977    1.2187 H   0  0  0  0  0  0  0  0  0  0  0  0
    4.2924   -2.3700   -0.1169 H   0  0  0  0  0  0  0  0  0  0  0  0
    4.1557   -1.1354   -1.3788 H   0  0  0  0  0  0  0  0  0  0  0  0
    3.2971    0.3226    0.5696 H   0  0  0  0  0  0  0  0  0  0  0  0
    2.0055    0.5305    2.4314 H   0  0  0  0  0  0  0  0  0  0  0  0
    0.1332    1.8565    3.3272 H   0  0  0  0  0  0  0  0  0  0  0  0
   -3.0486   -1.7272   -0.7195 H   0  0  0  0  0  0  0  0  0  0  0  0
   -3.2852   -1.6814    1.0310 H   0  0  0  0  0  0  0  0  0  0  0  0
   -5.3780   -0.4136    0.8022 H   0  0  0  0  0  0  0  0  0  0  0  0
   -5.4555   -1.9286   -0.0957 H   0  0  0  0  0  0  0  0  0  0  0  0
   -5.0123   -0.7480   -2.2157 H   0  0  0  0  0  0  0  0  0  0  0  0
   -6.4286   -0.0833   -1.4063 H   0  0  0  0  0  0  0  0  0  0  0  0
   -4.9530    1.7248   -2.3135 H   0  0  0  0  0  0  0  0  0  0  0  0
   -5.0810    1.8350   -0.5449 H   0  0  0  0  0  0  0  0  0  0  0  0
   -0.5947   -1.1245   -0.5878 H   0  0  0  0  0  0  0  0  0  0  0  0
  1  2  1  0
  2  3  1  0
  3  4  1  0
  4  5  1  0
  5  6  1  0
  6  7  2  0
  6  8  1  0
  8  9  2  0
  9 10  1  0
 10 11  2  0
 11 12  1  0
 11 13  1  0
 13 14  1  0
 14 15  1  0
 15 16  1  0
 16 17  1  0
 17 18  1  0
 18 19  1  0
 19 20  2  0
 19 21  2  0
 13 22  2  0
 22  8  1  0
 19 14  1  0
  1 23  1  0
  1 24  1  0
  1 25  1  0
  3 26  1  0
  3 27  1  0
  4 28  1  0
  4 29  1  0
  5 30  1  0
  9 31  1  0
 10 32  1  0
 15 33  1  0
 15 34  1  0
 16 35  1  0
 16 36  1  0
 17 37  1  0
 17 38  1  0
 18 39  1  0
 18 40  1  0
 22 41  1  0
M  END
$$$$
