
     RDKit          3D

 50 52  0  0  0  0  0  0  0  0999 V2000
   -2.5189    0.3535    3.8047 C   0  0  0  0  0  0  0  0  0  0  0  0
   -3.7228    0.1370    3.0801 O   0  0  0  0  0  0  0  0  0  0  0  0
   -3.6493    0.1024    1.7118 C   0  0  0  0  0  0  0  0  0  0  0  0
   -2.4842    0.2978    0.9696 C   0  0  0  0  0  0  0  0  0  0  0  0
   -2.5303    0.2340   -0.4308 C   0  0  0  0  0  0  0  0  0  0  0  0
   -1.3049    0.4435   -1.2487 C   0  0  0  0  0  0  0  0  0  0  0  0
   -1.4064    1.0938   -2.2812 O   0  0  0  0  0  0  0  0  0  0  0  0
   -0.1679   -0.1681   -0.7524 N   0  0  0  0  0  0  0  0  0  0  0  0
    1.1369   -0.1037   -1.2859 C   0  0  0  0  0  0  0  0  0  0  0  0
    1.4948    0.6930   -2.3777 C   0  0  0  0  0  0  0  0  0  0  0  0
    2.8114    0.7069   -2.8539 C   0  0  0  0  0  0  0  0  0  0  0  0
    3.7874   -0.0708   -2.2377 C   0  0  0  0  0  0  0  0  0  0  0  0
    3.4379   -0.8523   -1.1360 C   0  0  0  0  0  0  0  0  0  0  0  0
    4.6710   -1.8623   -0.3608 S   0  0  0  0  0  6  0  0  0  0  0  0
    5.6653   -2.2118   -1.3506 O   0  0  0  0  0  0  0  0  0  0  0  0
    3.9953   -2.8731    0.4258 O   0  0  0  0  0  0  0  0  0  0  0  0
    5.3286   -0.7704    0.7611 N   0  0  0  0  0  0  0  0  0  0  0  0
    6.7442   -0.4385    0.5703 C   0  0  0  0  0  0  0  0  0  0  0  0
    7.1525    0.7599   -0.2354 C   0  0  0  0  0  0  0  0  0  0  0  0
    7.3304    0.7638    1.2544 C   0  0  0  0  0  0  0  0  0  0  0  0
    2.1201   -0.8812   -0.6640 C   0  0  0  0  0  0  0  0  0  0  0  0
   -3.7399    0.0017   -1.1001 C   0  0  0  0  0  0  0  0  0  0  0  0
   -4.9126   -0.1989   -0.3740 C   0  0  0  0  0  0  0  0  0  0  0  0
   -6.1421   -0.4504   -0.9240 O   0  0  0  0  0  0  0  0  0  0  0  0
   -6.2225   -0.5383   -2.3405 C   0  0  0  0  0  0  0  0  0  0  0  0
   -4.8578   -0.1363    1.0305 C   0  0  0  0  0  0  0  0  0  0  0  0
   -6.0018   -0.3788    1.7604 O   0  0  0  0  0  0  0  0  0  0  0  0
   -6.6997    0.8449    1.9892 C   0  0  0  0  0  0  0  0  0  0  0  0
   -2.7611    0.3304    4.8716 H   0  0  0  0  0  0  0  0  0  0  0  0
   -2.0961    1.3392    3.5804 H   0  0  0  0  0  0  0  0  0  0  0  0
   -1.7917   -0.4435    3.6111 H   0  0  0  0  0  0  0  0  0  0  0  0
   -1.5430    0.5278    1.4564 H   0  0  0  0  0  0  0  0  0  0  0  0
   -0.2907   -0.7917    0.0360 H   0  0  0  0  0  0  0  0  0  0  0  0
    0.7688    1.3195   -2.8873 H   0  0  0  0  0  0  0  0  0  0  0  0
    3.0669    1.3261   -3.7107 H   0  0  0  0  0  0  0  0  0  0  0  0
    4.8072   -0.0631   -2.6162 H   0  0  0  0  0  0  0  0  0  0  0  0
    5.1070   -1.0985    1.7031 H   0  0  0  0  0  0  0  0  0  0  0  0
    7.3812   -1.3196    0.5254 H   0  0  0  0  0  0  0  0  0  0  0  0
    8.0354    0.6706   -0.8582 H   0  0  0  0  0  0  0  0  0  0  0  0
    6.3757    1.3899   -0.6523 H   0  0  0  0  0  0  0  0  0  0  0  0
    8.3385    0.6844    1.6443 H   0  0  0  0  0  0  0  0  0  0  0  0
    6.6738    1.3970    1.8394 H   0  0  0  0  0  0  0  0  0  0  0  0
    1.8696   -1.5130    0.1846 H   0  0  0  0  0  0  0  0  0  0  0  0
   -3.7298   -0.0217   -2.1857 H   0  0  0  0  0  0  0  0  0  0  0  0
   -7.2629   -0.7528   -2.6039 H   0  0  0  0  0  0  0  0  0  0  0  0
   -5.9496    0.4122   -2.8106 H   0  0  0  0  0  0  0  0  0  0  0  0
   -5.6066   -1.3601   -2.7210 H   0  0  0  0  0  0  0  0  0  0  0  0
   -7.6042    0.6122    2.5598 H   0  0  0  0  0  0  0  0  0  0  0  0
   -6.0974    1.5421    2.5815 H   0  0  0  0  0  0  0  0  0  0  0  0
   -7.0057    1.3151    1.0482 H   0  0  0  0  0  0  0  0  0  0  0  0
  1  2  1  0
  2  3  1  0
  3  4  2  0
  4  5  1  0
  5  6  1  0
  6  7  2  0
  6  8  1  0
  8  9  1  0
  9 10  2  0
 10 11  1  0
 11 12  2  0
 12 13  1  0
 13 14  1  0
 14 15  2  0
 14 16  2  0
 14 17  1  0
 17 18  1  0
 18 19  1  0
 19 20  1  0
 13 21  2  0
  5 22  2  0
 22 23  1  0
 23 24  1  0
 24 25  1  0
 23 26  2  0
 26 27  1  0
 27 28  1  0
 26  3  1  0
 21  9  1  0
 20 18  1  0
  1 29  1  0
  1 30  1  0
  1 31  1  0
  4 32  1  0
  8 33  1  0
 10 34  1  0
 11 35  1  0
 12 36  1  0
 17 37  1  0
 18 38  1  0
 19 39  1  0
 19 40  1  0
 20 41  1  0
 20 42  1  0
 21 43  1  0
 22 44  1  0
 25 45  1  0
 25 46  1  0
 25 47  1  0
 28 48  1  0
 28 49  1  0
 28 50  1  0
M  END
$$$$
