
     RDKit          3D

 47 50  0  0  0  0  0  0  0  0999 V2000
   -5.0244   -0.1516    4.3311 C   0  0  0  0  0  0  0  0  0  0  0  0
   -5.2776    0.1778    2.9731 O   0  0  0  0  0  0  0  0  0  0  0  0
   -4.2288    0.0863    2.0871 C   0  0  0  0  0  0  0  0  0  0  0  0
   -2.9358   -0.3257    2.4449 C   0  0  0  0  0  0  0  0  0  0  0  0
   -1.9641   -0.3769    1.4579 C   0  0  0  0  0  0  0  0  0  0  0  0
   -2.2849   -0.0180    0.1221 C   0  0  0  0  0  0  0  0  0  0  0  0
   -3.5455    0.3893   -0.2547 C   0  0  0  0  0  0  0  0  0  0  0  0
   -4.5323    0.4429    0.7392 C   0  0  0  0  0  0  0  0  0  0  0  0
   -5.8331    0.8296    0.5094 O   0  0  0  0  0  0  0  0  0  0  0  0
   -6.1876    1.2060   -0.8128 C   0  0  0  0  0  0  0  0  0  0  0  0
   -1.0717   -0.1868   -0.6013 C   0  0  0  0  0  0  0  0  0  0  0  0
   -0.0734   -0.6186    0.2261 C   0  0  0  0  0  0  0  0  0  0  0  0
    1.0629   -0.7462   -0.5859 C   0  0  0  0  0  0  0  0  0  0  0  0
    2.4074   -1.1755   -0.1803 C   0  0  0  0  0  0  0  0  0  0  0  0
    2.6945   -1.4765    0.9745 O   0  0  0  0  0  0  0  0  0  0  0  0
    3.3046   -1.1930   -1.2230 N   0  0  0  0  0  0  0  0  0  0  0  0
    4.7111   -1.4211   -1.0350 C   0  0  0  0  0  0  0  0  0  0  0  0
    5.4590   -0.1295   -0.8879 C   0  0  0  0  0  0  0  0  0  0  0  0
    5.9776    0.5497   -1.9941 C   0  0  0  0  0  0  0  0  0  0  0  0
    6.6512    1.7538   -1.8106 C   0  0  0  0  0  0  0  0  0  0  0  0
    6.7796    2.2444   -0.5220 C   0  0  0  0  0  0  0  0  0  0  0  0
    6.2847    1.6242    0.5696 N   0  0  0  0  0  0  0  0  0  0  0  0
    5.6305    0.4579    0.3623 C   0  0  0  0  0  0  0  0  0  0  0  0
    0.7665   -0.4005   -1.8698 N   0  0  0  0  0  0  0  0  0  0  0  0
   -0.5532   -0.0620   -1.8372 N   0  0  0  0  0  0  0  0  0  0  0  0
   -1.2228    0.3684   -3.0372 C   0  0  0  0  0  0  0  0  0  0  0  0
   -0.4916   -0.7998    1.6423 C   0  0  0  0  0  0  0  0  0  0  0  0
   -4.7251   -1.1998    4.4342 H   0  0  0  0  0  0  0  0  0  0  0  0
   -5.9571   -0.0170    4.8873 H   0  0  0  0  0  0  0  0  0  0  0  0
   -4.2777    0.5194    4.7683 H   0  0  0  0  0  0  0  0  0  0  0  0
   -2.6725   -0.6032    3.4580 H   0  0  0  0  0  0  0  0  0  0  0  0
   -3.7427    0.6522   -1.2839 H   0  0  0  0  0  0  0  0  0  0  0  0
   -6.0680    0.3682   -1.5075 H   0  0  0  0  0  0  0  0  0  0  0  0
   -7.2456    1.4853   -0.8091 H   0  0  0  0  0  0  0  0  0  0  0  0
   -5.6149    2.0791   -1.1424 H   0  0  0  0  0  0  0  0  0  0  0  0
    2.9520   -0.8144   -2.0978 H   0  0  0  0  0  0  0  0  0  0  0  0
    5.0740   -1.9705   -1.9107 H   0  0  0  0  0  0  0  0  0  0  0  0
    4.8788   -2.0618   -0.1616 H   0  0  0  0  0  0  0  0  0  0  0  0
    5.8598    0.1472   -2.9968 H   0  0  0  0  0  0  0  0  0  0  0  0
    7.0648    2.2981   -2.6520 H   0  0  0  0  0  0  0  0  0  0  0  0
    7.2970    3.1793   -0.3275 H   0  0  0  0  0  0  0  0  0  0  0  0
    5.2302   -0.0061    1.2615 H   0  0  0  0  0  0  0  0  0  0  0  0
   -1.5992    1.3819   -2.8787 H   0  0  0  0  0  0  0  0  0  0  0  0
   -0.5180    0.3608   -3.8726 H   0  0  0  0  0  0  0  0  0  0  0  0
   -2.0459   -0.3210   -3.2401 H   0  0  0  0  0  0  0  0  0  0  0  0
    0.0292   -0.1179    2.3187 H   0  0  0  0  0  0  0  0  0  0  0  0
   -0.4216   -1.8413    1.9650 H   0  0  0  0  0  0  0  0  0  0  0  0
  1  2  1  0
  2  3  1  0
  3  4  2  0
  4  5  1  0
  5  6  2  0
  6  7  1  0
  7  8  2  0
  8  9  1  0
  9 10  1  0
  6 11  1  0
 11 12  2  0
 12 13  1  0
 13 14  1  0
 14 15  2  0
 14 16  1  0
 16 17  1  0
 17 18  1  0
 18 19  2  0
 19 20  1  0
 20 21  2  0
 21 22  1  0
 22 23  2  0
 13 24  2  0
 24 25  1  0
 25 26  1  0
 12 27  1  0
  8  3  1  0
 25 11  1  0
 27  5  1  0
 23 18  1  0
  1 28  1  0
  1 29  1  0
  1 30  1  0
  4 31  1  0
  7 32  1  0
 10 33  1  0
 10 34  1  0
 10 35  1  0
 16 36  1  0
 17 37  1  0
 17 38  1  0
 19 39  1  0
 20 40  1  0
 21 41  1  0
 23 42  1  0
 26 43  1  0
 26 44  1  0
 26 45  1  0
 27 46  1  0
 27 47  1  0
M  END
$$$$
