
     RDKit          3D

 45 46  0  0  0  0  0  0  0  0999 V2000
   -2.0707   -3.3403   -0.3222 C   0  0  0  0  0  0  0  0  0  0  0  0
   -1.5066   -2.7418    0.8528 N   0  0  0  0  0  0  0  0  0  0  0  0
   -0.8915   -3.6975    1.7257 C   0  0  0  0  0  0  0  0  0  0  0  0
   -0.6360   -1.6240    0.5254 C   0  0  0  0  0  0  0  0  0  0  0  0
   -0.0734   -1.0359    1.7742 C   0  0  0  0  0  0  0  0  0  0  0  0
    0.8155    0.0957    1.5612 N   0  0  0  0  0  0  0  0  0  0  0  0
    1.9982   -0.0251    0.8236 C   0  0  0  0  0  0  0  0  0  0  0  0
    2.2370   -1.1971    0.3590 O   0  0  0  0  0  0  0  0  0  0  0  0
    2.9712    0.9911    0.5239 C   0  0  0  0  0  0  0  0  0  0  0  0
    4.0963    0.6861   -0.2198 C   0  0  0  0  0  0  0  0  0  0  0  0
    5.0626    1.5982   -0.5428 C   0  0  0  0  0  0  0  0  0  0  0  0
    4.9310    2.8967   -0.1162 C   0  0  0  0  0  0  0  0  0  0  0  0
    3.8384    3.2454    0.6202 C   0  0  0  0  0  0  0  0  0  0  0  0
    2.8659    2.2937    0.9362 C   0  0  0  0  0  0  0  0  0  0  0  0
    1.8328    2.7289    1.6602 F   0  0  0  0  0  0  0  0  0  0  0  0
   -1.5481   -0.5780   -0.0681 C   0  0  0  0  0  0  0  0  0  0  0  0
   -2.7499   -0.3060    0.5529 C   0  0  0  0  0  0  0  0  0  0  0  0
   -3.5641    0.6518   -0.0072 C   0  0  0  0  0  0  0  0  0  0  0  0
   -3.2233    1.3339   -1.1459 C   0  0  0  0  0  0  0  0  0  0  0  0
   -2.0152    1.0293   -1.7305 C   0  0  0  0  0  0  0  0  0  0  0  0
   -1.1704    0.0724   -1.1961 C   0  0  0  0  0  0  0  0  0  0  0  0
   -1.9101    1.8440   -2.8480 O   0  0  0  0  0  0  0  0  0  0  0  0
   -2.8159    2.9253   -2.7304 C   0  0  0  0  0  0  0  0  0  0  0  0
   -3.8311    2.3307   -1.9212 O   0  0  0  0  0  0  0  0  0  0  0  0
    0.6859    0.0000    0.0000 Cl  0  0  0  0  0  0  0  0  0  0  0  0
   -3.0330   -3.8687   -0.0581 H   0  0  0  0  0  0  0  0  0  0  0  0
   -1.4221   -4.1070   -0.7886 H   0  0  0  0  0  0  0  0  0  0  0  0
   -2.3255   -2.6014   -1.0821 H   0  0  0  0  0  0  0  0  0  0  0  0
   -1.0938   -3.4648    2.7937 H   0  0  0  0  0  0  0  0  0  0  0  0
    0.1941   -3.7899    1.5597 H   0  0  0  0  0  0  0  0  0  0  0  0
   -1.3298   -4.7134    1.5193 H   0  0  0  0  0  0  0  0  0  0  0  0
    0.1247   -1.8820   -0.2070 H   0  0  0  0  0  0  0  0  0  0  0  0
    0.4816   -1.8231    2.3261 H   0  0  0  0  0  0  0  0  0  0  0  0
   -0.9083   -0.7343    2.4560 H   0  0  0  0  0  0  0  0  0  0  0  0
    0.5607    1.0268    1.9732 H   0  0  0  0  0  0  0  0  0  0  0  0
    4.2277   -0.3231   -0.5685 H   0  0  0  0  0  0  0  0  0  0  0  0
    5.9407    1.3341   -1.1303 H   0  0  0  0  0  0  0  0  0  0  0  0
    5.7086    3.6231   -0.3781 H   0  0  0  0  0  0  0  0  0  0  0  0
    3.7220    4.2562    0.9605 H   0  0  0  0  0  0  0  0  0  0  0  0
   -3.0782   -0.8056    1.4501 H   0  0  0  0  0  0  0  0  0  0  0  0
   -4.5311    0.9101    0.4425 H   0  0  0  0  0  0  0  0  0  0  0  0
   -0.2351   -0.1548   -1.6598 H   0  0  0  0  0  0  0  0  0  0  0  0
   -2.3738    3.8161   -2.2614 H   0  0  0  0  0  0  0  0  0  0  0  0
   -3.2723    3.1242   -3.7221 H   0  0  0  0  0  0  0  0  0  0  0  0
   -0.6859    0.0000    0.0000 H   0  0  0  0  0  0  0  0  0  0  0  0
  1  2  1  0
  2  3  1  0
  2  4  1  0
  4  5  1  0
  5  6  1  0
  6  7  1  0
  7  8  2  0
  7  9  1  0
  9 10  2  0
 10 11  1  0
 11 12  2  0
 12 13  1  0
 13 14  2  0
 14 15  1  0
  4 16  1  0
 16 17  2  0
 17 18  1  0
 18 19  2  0
 19 20  1  0
 20 21  2  0
 20 22  1  0
 22 23  1  0
 23 24  1  0
 14  9  1  0
 21 16  1  0
 24 19  1  0
  1 26  1  0
  1 27  1  0
  1 28  1  0
  3 29  1  0
  3 30  1  0
  3 31  1  0
  4 32  1  0
  5 33  1  0
  5 34  1  0
  6 35  1  0
 10 36  1  0
 11 37  1  0
 12 38  1  0
 13 39  1  0
 17 40  1  0
 18 41  1  0
 21 42  1  0
 23 43  1  0
 23 44  1  0
 25 45  1  0
M  END
$$$$
