
     RDKit          3D

 49 52  0  0  0  0  0  0  0  0999 V2000
    7.4821    0.4741   -2.3008 C   0  0  0  0  0  0  0  0  0  0  0  0
    6.8131    1.3358   -1.3911 O   0  0  0  0  0  0  0  0  0  0  0  0
    5.6833    0.8457   -0.8009 C   0  0  0  0  0  0  0  0  0  0  0  0
    5.1201   -0.4106   -1.0168 C   0  0  0  0  0  0  0  0  0  0  0  0
    3.9483   -0.7803   -0.3442 C   0  0  0  0  0  0  0  0  0  0  0  0
    3.3331    0.0903    0.5608 C   0  0  0  0  0  0  0  0  0  0  0  0
    2.1556   -0.3612    1.1847 N   0  0  0  0  0  0  0  0  0  0  0  0
    1.4118    0.2704    2.1752 C   0  0  0  0  0  0  0  0  0  0  0  0
    1.7236    1.3067    2.7486 O   0  0  0  0  0  0  0  0  0  0  0  0
    0.1627   -0.5158    2.5722 C   0  0  0  0  0  0  0  0  0  0  0  0
   -0.6501    0.1695    3.6638 C   0  0  0  0  0  0  0  0  0  0  0  0
   -1.6217    1.2096    3.1385 C   0  0  0  0  0  0  0  0  0  0  0  0
   -2.0102    2.1417    3.8414 O   0  0  0  0  0  0  0  0  0  0  0  0
   -2.1574    1.0124    1.8926 N   0  0  0  0  0  0  0  0  0  0  0  0
   -1.7310    0.0021    1.0683 C   0  0  0  0  0  0  0  0  0  0  0  0
   -2.1587   -0.4600   -0.1577 C   0  0  0  0  0  0  0  0  0  0  0  0
   -3.2776    0.0618   -0.9238 C   0  0  0  0  0  0  0  0  0  0  0  0
   -3.3637    1.4414   -1.1652 C   0  0  0  0  0  0  0  0  0  0  0  0
   -4.4317    1.9731   -1.8893 C   0  0  0  0  0  0  0  0  0  0  0  0
   -5.4099    1.1289   -2.4014 C   0  0  0  0  0  0  0  0  0  0  0  0
   -5.3287   -0.2466   -2.1853 C   0  0  0  0  0  0  0  0  0  0  0  0
   -4.2742   -0.7888   -1.4393 C   0  0  0  0  0  0  0  0  0  0  0  0
   -4.1392   -2.1390   -1.2274 O   0  0  0  0  0  0  0  0  0  0  0  0
   -5.3574   -2.8546   -1.0401 C   0  0  0  0  0  0  0  0  0  0  0  0
   -1.2957   -1.5577   -0.4264 C   0  0  0  0  0  0  0  0  0  0  0  0
   -0.3654   -1.7384    0.5218 N   0  0  0  0  0  0  0  0  0  0  0  0
   -0.6631   -0.7705    1.4094 N   0  0  0  0  0  0  0  0  0  0  0  0
    3.8960    1.3485    0.7694 C   0  0  0  0  0  0  0  0  0  0  0  0
    5.0597    1.7217    0.0874 C   0  0  0  0  0  0  0  0  0  0  0  0
    8.3554    1.0116   -2.6834 H   0  0  0  0  0  0  0  0  0  0  0  0
    7.8372   -0.4287   -1.7987 H   0  0  0  0  0  0  0  0  0  0  0  0
    6.8425    0.2290   -3.1524 H   0  0  0  0  0  0  0  0  0  0  0  0
    5.5571   -1.1237   -1.7047 H   0  0  0  0  0  0  0  0  0  0  0  0
    3.5274   -1.7626   -0.5400 H   0  0  0  0  0  0  0  0  0  0  0  0
    1.7684   -1.2325    0.8211 H   0  0  0  0  0  0  0  0  0  0  0  0
    0.4983   -1.4889    2.9475 H   0  0  0  0  0  0  0  0  0  0  0  0
   -1.2631   -0.5763    4.1846 H   0  0  0  0  0  0  0  0  0  0  0  0
   -0.0014    0.6371    4.4130 H   0  0  0  0  0  0  0  0  0  0  0  0
   -2.9011    1.6381    1.6051 H   0  0  0  0  0  0  0  0  0  0  0  0
   -2.5934    2.1177   -0.8004 H   0  0  0  0  0  0  0  0  0  0  0  0
   -4.4894    3.0442   -2.0625 H   0  0  0  0  0  0  0  0  0  0  0  0
   -6.2357    1.5401   -2.9763 H   0  0  0  0  0  0  0  0  0  0  0  0
   -6.0873   -0.8802   -2.6313 H   0  0  0  0  0  0  0  0  0  0  0  0
   -5.8915   -2.9770   -1.9887 H   0  0  0  0  0  0  0  0  0  0  0  0
   -5.9906   -2.3687   -0.2919 H   0  0  0  0  0  0  0  0  0  0  0  0
   -5.1018   -3.8549   -0.6742 H   0  0  0  0  0  0  0  0  0  0  0  0
   -1.3113   -2.2211   -1.2833 H   0  0  0  0  0  0  0  0  0  0  0  0
    3.4491    2.0732    1.4435 H   0  0  0  0  0  0  0  0  0  0  0  0
    5.4772    2.7132    0.2488 H   0  0  0  0  0  0  0  0  0  0  0  0
  1  2  1  0
  2  3  1  0
  3  4  2  0
  4  5  1  0
  5  6  2  0
  6  7  1  0
  7  8  1  0
  8  9  2  0
  8 10  1  0
 10 11  1  0
 11 12  1  0
 12 13  2  0
 12 14  1  0
 14 15  1  0
 15 16  2  0
 16 17  1  0
 17 18  2  0
 18 19  1  0
 19 20  2  0
 20 21  1  0
 21 22  2  0
 22 23  1  0
 23 24  1  0
 16 25  1  0
 25 26  2  0
 26 27  1  0
  6 28  1  0
 28 29  2  0
 29  3  1  0
 27 10  1  0
 27 15  1  0
 22 17  1  0
  1 30  1  0
  1 31  1  0
  1 32  1  0
  4 33  1  0
  5 34  1  0
  7 35  1  0
 10 36  1  0
 11 37  1  0
 11 38  1  0
 14 39  1  0
 18 40  1  0
 19 41  1  0
 20 42  1  0
 21 43  1  0
 24 44  1  0
 24 45  1  0
 24 46  1  0
 25 47  1  0
 28 48  1  0
 29 49  1  0
M  END
$$$$
