
     RDKit          3D

 45 46  0  0  0  0  0  0  0  0999 V2000
    0.6750   -1.6373   -1.8185 C   0  0  0  0  0  0  0  0  0  0  0  0
    0.4777   -1.5169   -0.4503 N   0  0  0  0  0  0  0  0  0  0  0  0
    0.1362   -2.6993    0.2714 C   0  0  0  0  0  0  0  0  0  0  0  0
    0.7020   -0.3679    0.2829 C   0  0  0  0  0  0  0  0  0  0  0  0
   -0.0647    0.8572    0.0464 C   0  0  0  0  0  0  0  0  0  0  0  0
   -1.4514    0.9224    0.2224 N   0  0  0  0  0  0  0  0  0  0  0  0
   -2.4956    0.2287   -0.3967 C   0  0  0  0  0  0  0  0  0  0  0  0
   -2.2119   -0.6093   -1.2694 O   0  0  0  0  0  0  0  0  0  0  0  0
   -3.8949    0.4520   -0.0573 C   0  0  0  0  0  0  0  0  0  0  0  0
   -4.6500    1.4039   -0.7253 C   0  0  0  0  0  0  0  0  0  0  0  0
   -5.9709    1.6123   -0.4047 C   0  0  0  0  0  0  0  0  0  0  0  0
   -6.6052    0.8941    0.5858 C   0  0  0  0  0  0  0  0  0  0  0  0
   -5.8650   -0.0551    1.2572 C   0  0  0  0  0  0  0  0  0  0  0  0
   -4.5345   -0.2781    0.9477 C   0  0  0  0  0  0  0  0  0  0  0  0
   -3.6051   -1.4931    1.8153 Cl  0  0  0  0  0  0  0  0  0  0  0  0
    2.1430   -0.0034    0.3276 C   0  0  0  0  0  0  0  0  0  0  0  0
    2.7988    0.2098    1.5508 C   0  0  0  0  0  0  0  0  0  0  0  0
    4.1258    0.5656    1.6298 C   0  0  0  0  0  0  0  0  0  0  0  0
    4.8752    0.7290    0.4941 C   0  0  0  0  0  0  0  0  0  0  0  0
    4.2776    0.5322   -0.7065 C   0  0  0  0  0  0  0  0  0  0  0  0
    2.9355    0.1730   -0.7795 C   0  0  0  0  0  0  0  0  0  0  0  0
    5.2490    0.7599   -1.6753 O   0  0  0  0  0  0  0  0  0  0  0  0
    6.4970    0.9826   -1.0712 C   0  0  0  0  0  0  0  0  0  0  0  0
    6.2046    1.0764    0.2977 O   0  0  0  0  0  0  0  0  0  0  0  0
    0.6911    0.0000    0.0000 Cl  0  0  0  0  0  0  0  0  0  0  0  0
    1.6594   -2.0852   -2.0860 H   0  0  0  0  0  0  0  0  0  0  0  0
   -0.0674   -2.4232   -2.1957 H   0  0  0  0  0  0  0  0  0  0  0  0
    0.4864   -0.7846   -2.4648 H   0  0  0  0  0  0  0  0  0  0  0  0
   -0.7064   -2.4841    0.9601 H   0  0  0  0  0  0  0  0  0  0  0  0
    0.9590   -3.0927    0.9042 H   0  0  0  0  0  0  0  0  0  0  0  0
   -0.1942   -3.4666   -0.4489 H   0  0  0  0  0  0  0  0  0  0  0  0
    0.4656   -0.6508    1.3868 H   0  0  0  0  0  0  0  0  0  0  0  0
    0.1475    1.2294   -1.0141 H   0  0  0  0  0  0  0  0  0  0  0  0
    0.4208    1.6735    0.6607 H   0  0  0  0  0  0  0  0  0  0  0  0
   -1.7846    1.6347    0.9715 H   0  0  0  0  0  0  0  0  0  0  0  0
   -4.1202    1.9539   -1.5018 H   0  0  0  0  0  0  0  0  0  0  0  0
   -6.5235    2.3685   -0.9549 H   0  0  0  0  0  0  0  0  0  0  0  0
   -7.6524    1.0495    0.8500 H   0  0  0  0  0  0  0  0  0  0  0  0
   -6.3675   -0.6222    2.0403 H   0  0  0  0  0  0  0  0  0  0  0  0
    2.2224    0.0853    2.4633 H   0  0  0  0  0  0  0  0  0  0  0  0
    4.6190    0.7268    2.5804 H   0  0  0  0  0  0  0  0  0  0  0  0
    2.5519    0.0523   -1.7581 H   0  0  0  0  0  0  0  0  0  0  0  0
    7.2133    0.1408   -1.2953 H   0  0  0  0  0  0  0  0  0  0  0  0
    6.9229    1.9560   -1.3936 H   0  0  0  0  0  0  0  0  0  0  0  0
   -0.6911    0.0000    0.0000 H   0  0  0  0  0  0  0  0  0  0  0  0
  1  2  1  0
  2  3  1  0
  2  4  1  0
  4  5  1  0
  5  6  1  0
  6  7  1  0
  7  8  2  0
  7  9  1  0
  9 10  2  0
 10 11  1  0
 11 12  2  0
 12 13  1  0
 13 14  2  0
 14 15  1  0
  4 16  1  0
 16 17  2  0
 17 18  1  0
 18 19  2  0
 19 20  1  0
 20 21  2  0
 20 22  1  0
 22 23  1  0
 23 24  1  0
 14  9  1  0
 21 16  1  0
 24 19  1  0
  1 26  1  0
  1 27  1  0
  1 28  1  0
  3 29  1  0
  3 30  1  0
  3 31  1  0
  4 32  1  0
  5 33  1  0
  5 34  1  0
  6 35  1  0
 10 36  1  0
 11 37  1  0
 12 38  1  0
 13 39  1  0
 17 40  1  0
 18 41  1  0
 21 42  1  0
 23 43  1  0
 23 44  1  0
 25 45  1  0
M  END
$$$$
