
     RDKit          3D

 68 72  0  0  0  0  0  0  0  0999 V2000
   -1.4549    3.6833   -3.7209 C   0  0  0  0  0  0  0  0  0  0  0  0
   -2.4475    3.4188   -2.7293 O   0  0  0  0  0  0  0  0  0  0  0  0
   -1.9736    2.6159   -1.7241 C   0  0  0  0  0  0  0  0  0  0  0  0
   -1.4562    1.3482   -1.9928 C   0  0  0  0  0  0  0  0  0  0  0  0
   -0.9896    0.5332   -0.9496 C   0  0  0  0  0  0  0  0  0  0  0  0
   -0.4197   -0.8365   -1.2762 C   0  0  0  0  0  0  0  0  0  0  0  0
    1.0283   -0.9934   -0.9028 C   0  0  0  0  0  0  0  0  0  0  0  0
    2.0328   -0.1733   -1.6084 C   0  0  0  0  0  0  0  0  0  0  0  0
    1.7122    0.5586   -2.5396 O   0  0  0  0  0  0  0  0  0  0  0  0
    3.4433   -0.2291   -1.2013 C   0  0  0  0  0  0  0  0  0  0  0  0
    4.2478   -1.2962   -1.6174 C   0  0  0  0  0  0  0  0  0  0  0  0
    5.5960   -1.3212   -1.2559 C   0  0  0  0  0  0  0  0  0  0  0  0
    6.1290   -0.2798   -0.4941 C   0  0  0  0  0  0  0  0  0  0  0  0
    5.3249    0.8046   -0.1161 C   0  0  0  0  0  0  0  0  0  0  0  0
    3.9763    0.8319   -0.4629 C   0  0  0  0  0  0  0  0  0  0  0  0
    5.7977    1.8746    0.6017 O   0  0  0  0  0  0  0  0  0  0  0  0
    7.2298    1.9190    0.5847 C   0  0  0  0  0  0  0  0  0  0  0  0
    7.8095    0.5431    0.8728 C   0  0  0  0  0  0  0  0  0  0  0  0
    7.4560   -0.3807   -0.1634 O   0  0  0  0  0  0  0  0  0  0  0  0
    1.2069   -1.9294    0.0353 C   0  0  0  0  0  0  0  0  0  0  0  0
    2.3534   -2.3708    0.6211 O   0  0  0  0  0  0  0  0  0  0  0  0
   -0.1127   -2.5394    0.3032 C   0  0  0  0  0  0  0  0  0  0  0  0
   -0.2733   -3.4709    1.0704 O   0  0  0  0  0  0  0  0  0  0  0  0
   -1.0381   -1.8889   -0.4798 N   0  0  0  0  0  0  0  0  0  0  0  0
   -2.3740   -2.4062   -0.7507 C   0  0  0  0  0  0  0  0  0  0  0  0
   -3.4943   -1.6657   -0.0192 C   0  0  0  0  0  0  0  0  0  0  0  0
   -3.5085   -1.9002    1.4920 C   0  0  0  0  0  0  0  0  0  0  0  0
   -4.0788   -3.1794    1.8653 N   0  0  0  0  0  0  0  0  0  0  0  0
   -5.4133   -3.4711    1.9384 C   0  0  0  0  0  0  0  0  0  0  0  0
   -5.4678   -4.7802    2.3554 C   0  0  0  0  0  0  0  0  0  0  0  0
   -4.2068   -5.2824    2.5420 N   0  0  0  0  0  0  0  0  0  0  0  0
   -3.3913   -4.2940    2.2486 C   0  0  0  0  0  0  0  0  0  0  0  0
   -1.0502    1.0197    0.3743 C   0  0  0  0  0  0  0  0  0  0  0  0
   -1.5889    2.2800    0.6564 C   0  0  0  0  0  0  0  0  0  0  0  0
   -1.7095    2.8149    1.9128 O   0  0  0  0  0  0  0  0  0  0  0  0
   -1.0151    2.1658    2.9697 C   0  0  0  0  0  0  0  0  0  0  0  0
   -2.0758    3.0626   -0.4019 C   0  0  0  0  0  0  0  0  0  0  0  0
   -2.5708    4.3198   -0.1430 O   0  0  0  0  0  0  0  0  0  0  0  0
   -3.9906    4.2637   -0.0164 C   0  0  0  0  0  0  0  0  0  0  0  0
   -1.4089    2.8605   -4.4431 H   0  0  0  0  0  0  0  0  0  0  0  0
   -0.4667    3.8666   -3.2804 H   0  0  0  0  0  0  0  0  0  0  0  0
   -1.7567    4.5863   -4.2606 H   0  0  0  0  0  0  0  0  0  0  0  0
   -1.4105    0.9946   -3.0200 H   0  0  0  0  0  0  0  0  0  0  0  0
   -0.5620   -1.0933   -2.3337 H   0  0  0  0  0  0  0  0  0  0  0  0
    3.8329   -2.1066   -2.2111 H   0  0  0  0  0  0  0  0  0  0  0  0
    6.2287   -2.1506   -1.5622 H   0  0  0  0  0  0  0  0  0  0  0  0
    3.3572    1.6771   -0.1738 H   0  0  0  0  0  0  0  0  0  0  0  0
    7.5544    2.2961   -0.3952 H   0  0  0  0  0  0  0  0  0  0  0  0
    7.5488    2.6352    1.3497 H   0  0  0  0  0  0  0  0  0  0  0  0
    7.4496    0.1472    1.8306 H   0  0  0  0  0  0  0  0  0  0  0  0
    8.9024    0.5913    0.9127 H   0  0  0  0  0  0  0  0  0  0  0  0
    2.0853   -3.1083    1.2093 H   0  0  0  0  0  0  0  0  0  0  0  0
   -2.5372   -2.3421   -1.8332 H   0  0  0  0  0  0  0  0  0  0  0  0
   -2.3960   -3.4709   -0.4924 H   0  0  0  0  0  0  0  0  0  0  0  0
   -4.4536   -1.9804   -0.4490 H   0  0  0  0  0  0  0  0  0  0  0  0
   -3.4164   -0.5909   -0.2082 H   0  0  0  0  0  0  0  0  0  0  0  0
   -4.1316   -1.1360    1.9727 H   0  0  0  0  0  0  0  0  0  0  0  0
   -2.5094   -1.8228    1.9337 H   0  0  0  0  0  0  0  0  0  0  0  0
   -6.1857   -2.7541    1.6995 H   0  0  0  0  0  0  0  0  0  0  0  0
   -6.3456   -5.3872    2.5346 H   0  0  0  0  0  0  0  0  0  0  0  0
   -2.3109   -4.3376    2.2956 H   0  0  0  0  0  0  0  0  0  0  0  0
   -0.6849    0.3879    1.1778 H   0  0  0  0  0  0  0  0  0  0  0  0
   -1.1106    2.7870    3.8650 H   0  0  0  0  0  0  0  0  0  0  0  0
    0.0526    2.0666    2.7450 H   0  0  0  0  0  0  0  0  0  0  0  0
   -1.4660    1.1929    3.1912 H   0  0  0  0  0  0  0  0  0  0  0  0
   -4.3422    5.2635    0.2550 H   0  0  0  0  0  0  0  0  0  0  0  0
   -4.4645    3.9883   -0.9646 H   0  0  0  0  0  0  0  0  0  0  0  0
   -4.2954    3.5710    0.7763 H   0  0  0  0  0  0  0  0  0  0  0  0
  1  2  1  0
  2  3  1  0
  3  4  2  0
  4  5  1  0
  5  6  1  0
  6  7  1  0
  7  8  1  0
  8  9  2  0
  8 10  1  0
 10 11  2  0
 11 12  1  0
 12 13  2  0
 13 14  1  0
 14 15  2  0
 14 16  1  0
 16 17  1  0
 17 18  1  0
 18 19  1  0
  7 20  2  0
 20 21  1  0
 20 22  1  0
 22 23  2  0
 22 24  1  0
 24 25  1  0
 25 26  1  0
 26 27  1  0
 27 28  1  0
 28 29  1  0
 29 30  2  0
 30 31  1  0
 31 32  2  0
  5 33  2  0
 33 34  1  0
 34 35  1  0
 35 36  1  0
 34 37  2  0
 37 38  1  0
 38 39  1  0
 37  3  1  0
 24  6  1  0
 32 28  1  0
 15 10  1  0
 19 13  1  0
  1 40  1  0
  1 41  1  0
  1 42  1  0
  4 43  1  0
  6 44  1  0
 11 45  1  0
 12 46  1  0
 15 47  1  0
 17 48  1  0
 17 49  1  0
 18 50  1  0
 18 51  1  0
 21 52  1  0
 25 53  1  0
 25 54  1  0
 26 55  1  0
 26 56  1  0
 27 57  1  0
 27 58  1  0
 29 59  1  0
 30 60  1  0
 32 61  1  0
 33 62  1  0
 36 63  1  0
 36 64  1  0
 36 65  1  0
 39 66  1  0
 39 67  1  0
 39 68  1  0
M  END
$$$$
