
     RDKit          3D

 51 53  0  0  0  0  0  0  0  0999 V2000
    7.4648    1.7902   -2.4352 C   0  0  0  0  0  0  0  0  0  0  0  0
    6.9390    1.9411   -1.1240 O   0  0  0  0  0  0  0  0  0  0  0  0
    5.7626    1.2959   -0.8307 C   0  0  0  0  0  0  0  0  0  0  0  0
    5.0401    0.5174   -1.7441 C   0  0  0  0  0  0  0  0  0  0  0  0
    3.8490   -0.1065   -1.3664 C   0  0  0  0  0  0  0  0  0  0  0  0
    3.1587   -0.8730   -2.3168 N   0  0  0  0  0  0  0  0  0  0  0  0
    2.0718   -1.4571   -1.9405 C   0  0  0  0  0  0  0  0  0  0  0  0
    1.5318   -1.3811   -0.6790 N   0  0  0  0  0  0  0  0  0  0  0  0
    0.2762   -2.0649   -0.3824 C   0  0  0  0  0  0  0  0  0  0  0  0
   -0.9183   -1.1215   -0.4925 C   0  0  0  0  0  0  0  0  0  0  0  0
   -2.2142   -1.8618   -0.2559 C   0  0  0  0  0  0  0  0  0  0  0  0
   -2.2847   -3.0823   -0.1697 O   0  0  0  0  0  0  0  0  0  0  0  0
   -3.3056   -1.0282   -0.1821 N   0  0  0  0  0  0  0  0  0  0  0  0
   -4.6469   -1.5290    0.0749 C   0  0  0  0  0  0  0  0  0  0  0  0
   -5.2473   -2.1859   -1.1719 C   0  0  0  0  0  0  0  0  0  0  0  0
   -5.5094   -0.4015    0.6151 C   0  0  0  0  0  0  0  0  0  0  0  0
   -5.9836    0.6314   -0.2103 C   0  0  0  0  0  0  0  0  0  0  0  0
   -6.7529    1.6701    0.3185 C   0  0  0  0  0  0  0  0  0  0  0  0
   -7.0511    1.6963    1.6787 C   0  0  0  0  0  0  0  0  0  0  0  0
   -6.5777    0.6865    2.5129 C   0  0  0  0  0  0  0  0  0  0  0  0
   -5.8092   -0.3534    1.9860 C   0  0  0  0  0  0  0  0  0  0  0  0
    2.1245   -0.6080    0.3096 C   0  0  0  0  0  0  0  0  0  0  0  0
    1.6496   -0.4451    1.4303 O   0  0  0  0  0  0  0  0  0  0  0  0
    3.3879    0.0574   -0.0621 C   0  0  0  0  0  0  0  0  0  0  0  0
    4.0919    0.8314    0.8671 C   0  0  0  0  0  0  0  0  0  0  0  0
    5.2833    1.4538    0.4875 C   0  0  0  0  0  0  0  0  0  0  0  0
    6.0491    2.2328    1.3186 O   0  0  0  0  0  0  0  0  0  0  0  0
    5.6109    2.3965    2.6604 C   0  0  0  0  0  0  0  0  0  0  0  0
    6.7822    2.2045   -3.1844 H   0  0  0  0  0  0  0  0  0  0  0  0
    7.7001    0.7423   -2.6487 H   0  0  0  0  0  0  0  0  0  0  0  0
    8.3990    2.3574   -2.4880 H   0  0  0  0  0  0  0  0  0  0  0  0
    5.3769    0.3745   -2.7654 H   0  0  0  0  0  0  0  0  0  0  0  0
    1.5000   -2.0731   -2.6532 H   0  0  0  0  0  0  0  0  0  0  0  0
    0.1607   -2.9074   -1.0750 H   0  0  0  0  0  0  0  0  0  0  0  0
    0.3325   -2.4823    0.6305 H   0  0  0  0  0  0  0  0  0  0  0  0
   -0.9562   -0.6725   -1.4920 H   0  0  0  0  0  0  0  0  0  0  0  0
   -0.8333   -0.3092    0.2383 H   0  0  0  0  0  0  0  0  0  0  0  0
   -3.1656   -0.0259   -0.1613 H   0  0  0  0  0  0  0  0  0  0  0  0
   -4.5630   -2.3111    0.8409 H   0  0  0  0  0  0  0  0  0  0  0  0
   -5.2520   -1.5072   -2.0318 H   0  0  0  0  0  0  0  0  0  0  0  0
   -4.6679   -3.0674   -1.4666 H   0  0  0  0  0  0  0  0  0  0  0  0
   -6.2777   -2.5095   -0.9880 H   0  0  0  0  0  0  0  0  0  0  0  0
   -5.7567    0.6396   -1.2738 H   0  0  0  0  0  0  0  0  0  0  0  0
   -7.1193    2.4605   -0.3320 H   0  0  0  0  0  0  0  0  0  0  0  0
   -7.6499    2.5050    2.0897 H   0  0  0  0  0  0  0  0  0  0  0  0
   -6.8050    0.7085    3.5758 H   0  0  0  0  0  0  0  0  0  0  0  0
   -5.4429   -1.1285    2.6567 H   0  0  0  0  0  0  0  0  0  0  0  0
    3.6892    0.9291    1.8700 H   0  0  0  0  0  0  0  0  0  0  0  0
    6.3396    3.0304    3.1750 H   0  0  0  0  0  0  0  0  0  0  0  0
    4.6420    2.9048    2.6998 H   0  0  0  0  0  0  0  0  0  0  0  0
    5.5770    1.4360    3.1852 H   0  0  0  0  0  0  0  0  0  0  0  0
  1  2  1  0
  2  3  1  0
  3  4  2  0
  4  5  1  0
  5  6  1  0
  6  7  2  0
  7  8  1  0
  8  9  1  0
  9 10  1  0
 10 11  1  0
 11 12  2  0
 11 13  1  0
 13 14  1  0
 14 15  1  0
 14 16  1  0
 16 17  2  0
 17 18  1  0
 18 19  2  0
 19 20  1  0
 20 21  2  0
  8 22  1  0
 22 23  2  0
 22 24  1  0
 24 25  1  0
 25 26  2  0
 26 27  1  0
 27 28  1  0
 26  3  1  0
 24  5  2  0
 21 16  1  0
  1 29  1  0
  1 30  1  0
  1 31  1  0
  4 32  1  0
  7 33  1  0
  9 34  1  0
  9 35  1  0
 10 36  1  0
 10 37  1  0
 13 38  1  0
 14 39  1  0
 15 40  1  0
 15 41  1  0
 15 42  1  0
 17 43  1  0
 18 44  1  0
 19 45  1  0
 20 46  1  0
 21 47  1  0
 25 48  1  0
 28 49  1  0
 28 50  1  0
 28 51  1  0
M  END
$$$$
