
     RDKit          3D

 41 43  0  0  0  0  0  0  0  0999 V2000
    2.9842    1.6286   -1.2854 C   0  0  0  0  0  0  0  0  0  0  0  0
    3.4484    0.6213   -0.2679 C   0  0  0  0  0  0  0  0  0  0  0  0
    4.8299    0.5786    0.0077 C   0  0  0  0  0  0  0  0  0  0  0  0
    5.3426   -0.2549    0.9990 C   0  0  0  0  0  0  0  0  0  0  0  0
    4.4820   -1.0594    1.7324 C   0  0  0  0  0  0  0  0  0  0  0  0
    3.1132   -1.0460    1.4578 C   0  0  0  0  0  0  0  0  0  0  0  0
    2.5746   -0.2306    0.4462 C   0  0  0  0  0  0  0  0  0  0  0  0
    1.1697   -0.3186    0.1572 N   0  0  0  0  0  0  0  0  0  0  0  0
    0.7871   -0.4536   -1.2501 C   0  0  0  0  0  0  0  0  0  0  0  0
    0.2327   -0.3954    1.1972 C   0  0  0  0  0  0  0  0  0  0  0  0
    0.4849   -0.3746    2.4008 O   0  0  0  0  0  0  0  0  0  0  0  0
   -1.1993   -0.4645    0.7909 C   0  0  0  0  0  0  0  0  0  0  0  0
   -1.7782   -1.6717    0.8697 C   0  0  0  0  0  0  0  0  0  0  0  0
   -3.0932   -1.8901    0.4975 N   0  0  0  0  0  0  0  0  0  0  0  0
   -3.6265   -3.2406    0.6042 C   0  0  0  0  0  0  0  0  0  0  0  0
   -3.9134   -0.8697    0.0046 C   0  0  0  0  0  0  0  0  0  0  0  0
   -5.0691   -1.0409   -0.3742 O   0  0  0  0  0  0  0  0  0  0  0  0
   -3.3168    0.4952   -0.0510 C   0  0  0  0  0  0  0  0  0  0  0  0
   -4.0966    1.5732   -0.4917 C   0  0  0  0  0  0  0  0  0  0  0  0
   -3.5551    2.8573   -0.5247 C   0  0  0  0  0  0  0  0  0  0  0  0
   -2.2405    3.0670   -0.1132 C   0  0  0  0  0  0  0  0  0  0  0  0
   -1.4603    1.9932    0.3250 C   0  0  0  0  0  0  0  0  0  0  0  0
   -1.9869    0.6931    0.3508 C   0  0  0  0  0  0  0  0  0  0  0  0
    2.8761    1.1626   -2.2687 H   0  0  0  0  0  0  0  0  0  0  0  0
    3.7029    2.4506   -1.3810 H   0  0  0  0  0  0  0  0  0  0  0  0
    2.0383    2.0872   -0.9808 H   0  0  0  0  0  0  0  0  0  0  0  0
    5.5178    1.2206   -0.5397 H   0  0  0  0  0  0  0  0  0  0  0  0
    6.4092   -0.2648    1.2067 H   0  0  0  0  0  0  0  0  0  0  0  0
    4.8701   -1.7055    2.5154 H   0  0  0  0  0  0  0  0  0  0  0  0
    2.4747   -1.7131    2.0323 H   0  0  0  0  0  0  0  0  0  0  0  0
    0.0057   -1.2108   -1.3612 H   0  0  0  0  0  0  0  0  0  0  0  0
    0.4029    0.5014   -1.6178 H   0  0  0  0  0  0  0  0  0  0  0  0
    1.6325   -0.7850   -1.8608 H   0  0  0  0  0  0  0  0  0  0  0  0
   -1.2261   -2.5403    1.2233 H   0  0  0  0  0  0  0  0  0  0  0  0
   -3.0810   -3.8914   -0.0865 H   0  0  0  0  0  0  0  0  0  0  0  0
   -4.6907   -3.2799    0.3573 H   0  0  0  0  0  0  0  0  0  0  0  0
   -3.4927   -3.5997    1.6297 H   0  0  0  0  0  0  0  0  0  0  0  0
   -5.1275    1.4137   -0.8015 H   0  0  0  0  0  0  0  0  0  0  0  0
   -4.1622    3.6943   -0.8613 H   0  0  0  0  0  0  0  0  0  0  0  0
   -1.8218    4.0709   -0.1259 H   0  0  0  0  0  0  0  0  0  0  0  0
   -0.4415    2.1923    0.6530 H   0  0  0  0  0  0  0  0  0  0  0  0
  1  2  1  0
  2  3  2  0
  3  4  1  0
  4  5  2  0
  5  6  1  0
  6  7  2  0
  7  8  1  0
  8  9  1  0
  8 10  1  0
 10 11  2  0
 10 12  1  0
 12 13  2  0
 13 14  1  0
 14 15  1  0
 14 16  1  0
 16 17  2  0
 16 18  1  0
 18 19  2  0
 19 20  1  0
 20 21  2  0
 21 22  1  0
 22 23  2  0
  7  2  1  0
 23 12  1  0
 23 18  1  0
  1 24  1  0
  1 25  1  0
  1 26  1  0
  3 27  1  0
  4 28  1  0
  5 29  1  0
  6 30  1  0
  9 31  1  0
  9 32  1  0
  9 33  1  0
 13 34  1  0
 15 35  1  0
 15 36  1  0
 15 37  1  0
 19 38  1  0
 20 39  1  0
 21 40  1  0
 22 41  1  0
M  END
$$$$
