
     RDKit          3D

 26 27  0  0  0  0  0  0  0  0999 V2000
   -3.9174   -0.5835   -1.4821 C   0  0  0  0  0  0  0  0  0  0  0  0
   -2.4979   -0.5356   -1.5600 O   0  0  0  0  0  0  0  0  0  0  0  0
   -1.8239   -0.2044   -0.4146 C   0  0  0  0  0  0  0  0  0  0  0  0
   -2.4013    0.0888    0.8160 C   0  0  0  0  0  0  0  0  0  0  0  0
   -1.6076    0.4150    1.9204 C   0  0  0  0  0  0  0  0  0  0  0  0
   -0.2183    0.4376    1.7508 C   0  0  0  0  0  0  0  0  0  0  0  0
    0.7660    0.7234    2.6652 N   0  0  0  0  0  0  0  0  0  0  0  0
    1.9917    0.6284    2.0754 C   0  0  0  0  0  0  0  0  0  0  0  0
    1.8278    0.2736    0.7454 C   0  0  0  0  0  0  0  0  0  0  0  0
    2.9715    0.0917   -0.1628 C   0  0  0  0  0  0  0  0  0  0  0  0
    4.1176    0.2562    0.2569 O   0  0  0  0  0  0  0  0  0  0  0  0
    2.7041   -0.2951   -1.5965 C   0  0  0  0  0  0  0  0  0  0  0  0
    3.9347   -0.4398   -2.3777 C   0  0  0  0  0  0  0  0  0  0  0  0
    4.8695   -0.5712   -3.0537 N   0  0  0  0  0  0  0  0  0  0  0  0
    0.4082    0.1502    0.5339 C   0  0  0  0  0  0  0  0  0  0  0  0
   -0.4278   -0.1750   -0.5592 C   0  0  0  0  0  0  0  0  0  0  0  0
   -4.2480   -1.3492   -0.7727 H   0  0  0  0  0  0  0  0  0  0  0  0
   -4.2970   -0.8595   -2.4706 H   0  0  0  0  0  0  0  0  0  0  0  0
   -4.3320    0.3977   -1.2284 H   0  0  0  0  0  0  0  0  0  0  0  0
   -3.4772    0.0742    0.9582 H   0  0  0  0  0  0  0  0  0  0  0  0
   -2.0641    0.6431    2.8790 H   0  0  0  0  0  0  0  0  0  0  0  0
    0.6007    0.9678    3.6327 H   0  0  0  0  0  0  0  0  0  0  0  0
    2.8946    0.8199    2.6431 H   0  0  0  0  0  0  0  0  0  0  0  0
    2.1646   -1.2478   -1.6060 H   0  0  0  0  0  0  0  0  0  0  0  0
    2.0816    0.4792   -2.0565 H   0  0  0  0  0  0  0  0  0  0  0  0
   -0.0201   -0.4103   -1.5362 H   0  0  0  0  0  0  0  0  0  0  0  0
  1  2  1  0
  2  3  1  0
  3  4  2  0
  4  5  1  0
  5  6  2  0
  6  7  1  0
  7  8  1  0
  8  9  2  0
  9 10  1  0
 10 11  2  0
 10 12  1  0
 12 13  1  0
 13 14  3  0
  9 15  1  0
 15 16  2  0
 16  3  1  0
 15  6  1  0
  1 17  1  0
  1 18  1  0
  1 19  1  0
  4 20  1  0
  5 21  1  0
  7 22  1  0
  8 23  1  0
 12 24  1  0
 12 25  1  0
 16 26  1  0
M  END
$$$$
