
     RDKit          3D

 54 57  0  0  0  0  0  0  0  0999 V2000
   -0.5372    3.7155   -1.7718 O   0  0  0  0  0  0  0  0  0  0  0  0
   -0.3621    2.5490   -1.4419 C   0  0  0  0  0  0  0  0  0  0  0  0
   -1.3037    1.6685   -0.9635 N   0  0  0  0  0  0  0  0  0  0  0  0
   -2.6550    1.9045   -0.6418 C   0  0  0  0  0  0  0  0  0  0  0  0
   -3.2763    3.1483   -0.7504 C   0  0  0  0  0  0  0  0  0  0  0  0
   -4.6248    3.2835   -0.4172 C   0  0  0  0  0  0  0  0  0  0  0  0
   -5.3514    2.1810    0.0279 C   0  0  0  0  0  0  0  0  0  0  0  0
   -4.7335    0.9339    0.1444 C   0  0  0  0  0  0  0  0  0  0  0  0
   -3.3813    0.7737   -0.1875 C   0  0  0  0  0  0  0  0  0  0  0  0
   -2.6996   -0.4629   -0.0614 N   0  0  0  0  0  0  0  0  0  0  0  0
   -3.3878   -1.6462   -0.6318 C   0  0  0  0  0  0  0  0  0  0  0  0
   -3.8923   -2.5976    0.4651 C   0  0  0  0  0  0  0  0  0  0  0  0
   -2.8614   -3.0702    1.3460 O   0  0  0  0  0  0  0  0  0  0  0  0
   -1.7714   -2.1433    1.4939 C   0  0  0  0  0  0  0  0  0  0  0  0
   -2.2003   -0.6778    1.3224 C   0  0  0  0  0  0  0  0  0  0  0  0
    1.0032    1.9702   -1.5721 C   0  0  0  0  0  0  0  0  0  0  0  0
    1.8191    2.3814   -2.6315 C   0  0  0  0  0  0  0  0  0  0  0  0
    3.1051    1.8570   -2.7639 C   0  0  0  0  0  0  0  0  0  0  0  0
    3.5747    0.9220   -1.8390 C   0  0  0  0  0  0  0  0  0  0  0  0
    2.7587    0.4986   -0.7867 C   0  0  0  0  0  0  0  0  0  0  0  0
    3.3232   -0.3879    0.1971 N   0  0  0  0  0  0  0  0  0  0  0  0
    4.0655    0.2834    1.2978 C   0  0  0  0  0  0  0  0  0  0  0  0
    4.5795   -0.7120    2.3426 C   0  0  0  0  0  0  0  0  0  0  0  0
    4.8802   -2.0805    1.7400 C   0  0  0  0  0  0  0  0  0  0  0  0
    3.6108   -2.8124    1.3163 C   0  0  0  0  0  0  0  0  0  0  0  0
    2.3657   -1.7220    0.6383 S   0  0  0  0  0  6  0  0  0  0  0  0
    1.4851   -1.2983    1.7102 O   0  0  0  0  0  0  0  0  0  0  0  0
    1.8287   -2.3335   -0.5584 O   0  0  0  0  0  0  0  0  0  0  0  0
    1.4879    1.0543   -0.6297 C   0  0  0  0  0  0  0  0  0  0  0  0
   -1.0633    0.6848   -0.8596 H   0  0  0  0  0  0  0  0  0  0  0  0
   -2.7354    4.0236   -1.0947 H   0  0  0  0  0  0  0  0  0  0  0  0
   -5.1061    4.2543   -0.5065 H   0  0  0  0  0  0  0  0  0  0  0  0
   -6.4003    2.2936    0.2898 H   0  0  0  0  0  0  0  0  0  0  0  0
   -5.3186    0.0973    0.5110 H   0  0  0  0  0  0  0  0  0  0  0  0
   -2.6472   -2.1779   -1.2417 H   0  0  0  0  0  0  0  0  0  0  0  0
   -4.2063   -1.3667   -1.3057 H   0  0  0  0  0  0  0  0  0  0  0  0
   -4.6542   -2.1103    1.0830 H   0  0  0  0  0  0  0  0  0  0  0  0
   -4.3598   -3.4770    0.0106 H   0  0  0  0  0  0  0  0  0  0  0  0
   -1.3426   -2.2995    2.4886 H   0  0  0  0  0  0  0  0  0  0  0  0
   -1.0069   -2.4113    0.7561 H   0  0  0  0  0  0  0  0  0  0  0  0
   -1.3449   -0.0203    1.5125 H   0  0  0  0  0  0  0  0  0  0  0  0
   -2.9848   -0.4481    2.0553 H   0  0  0  0  0  0  0  0  0  0  0  0
    1.4516    3.1107   -3.3511 H   0  0  0  0  0  0  0  0  0  0  0  0
    3.7401    2.1777   -3.5860 H   0  0  0  0  0  0  0  0  0  0  0  0
    4.5783    0.5190   -1.9466 H   0  0  0  0  0  0  0  0  0  0  0  0
    4.9326    0.7920    0.8574 H   0  0  0  0  0  0  0  0  0  0  0  0
    3.4457    1.0476    1.7806 H   0  0  0  0  0  0  0  0  0  0  0  0
    5.4819   -0.3017    2.8108 H   0  0  0  0  0  0  0  0  0  0  0  0
    3.8416   -0.8208    3.1471 H   0  0  0  0  0  0  0  0  0  0  0  0
    5.4239   -2.6987    2.4634 H   0  0  0  0  0  0  0  0  0  0  0  0
    5.5433   -1.9588    0.8744 H   0  0  0  0  0  0  0  0  0  0  0  0
    3.8479   -3.5691    0.5625 H   0  0  0  0  0  0  0  0  0  0  0  0
    3.1510   -3.3126    2.1751 H   0  0  0  0  0  0  0  0  0  0  0  0
    0.8830    0.7922    0.2332 H   0  0  0  0  0  0  0  0  0  0  0  0
  1  2  2  0
  2  3  1  0
  3  4  1  0
  4  5  2  0
  5  6  1  0
  6  7  2  0
  7  8  1  0
  8  9  2  0
  9 10  1  0
 10 11  1  0
 11 12  1  0
 12 13  1  0
 13 14  1  0
 14 15  1  0
  2 16  1  0
 16 17  2  0
 17 18  1  0
 18 19  2  0
 19 20  1  0
 20 21  1  0
 21 22  1  0
 22 23  1  0
 23 24  1  0
 24 25  1  0
 25 26  1  0
 26 27  2  0
 26 28  2  0
 20 29  2  0
  9  4  1  0
 15 10  1  0
 29 16  1  0
 26 21  1  0
  3 30  1  0
  5 31  1  0
  6 32  1  0
  7 33  1  0
  8 34  1  0
 11 35  1  0
 11 36  1  0
 12 37  1  0
 12 38  1  0
 14 39  1  0
 14 40  1  0
 15 41  1  0
 15 42  1  0
 17 43  1  0
 18 44  1  0
 19 45  1  0
 22 46  1  0
 22 47  1  0
 23 48  1  0
 23 49  1  0
 24 50  1  0
 24 51  1  0
 25 52  1  0
 25 53  1  0
 29 54  1  0
M  END
$$$$
