
     RDKit          3D

 47 50  0  0  0  0  0  0  0  0999 V2000
   -0.7228    0.4907    1.3616 O   0  0  0  0  0  0  0  0  0  0  0  0
   -0.8810    0.5220    0.1479 C   0  0  0  0  0  0  0  0  0  0  0  0
   -2.0455    0.2691   -0.5528 N   0  0  0  0  0  0  0  0  0  0  0  0
   -3.3230   -0.0045   -0.0196 C   0  0  0  0  0  0  0  0  0  0  0  0
   -4.3381   -0.3253   -0.9331 C   0  0  0  0  0  0  0  0  0  0  0  0
   -5.6365   -0.5977   -0.4930 C   0  0  0  0  0  0  0  0  0  0  0  0
   -5.9310   -0.5452    0.8649 C   0  0  0  0  0  0  0  0  0  0  0  0
   -4.9213   -0.2491    1.7843 C   0  0  0  0  0  0  0  0  0  0  0  0
   -3.6262    0.0354    1.3433 C   0  0  0  0  0  0  0  0  0  0  0  0
   -5.1334   -0.2093    3.1402 O   0  0  0  0  0  0  0  0  0  0  0  0
   -6.3648   -0.8472    3.4947 C   0  0  0  0  0  0  0  0  0  0  0  0
   -7.4853   -0.3939    2.5741 C   0  0  0  0  0  0  0  0  0  0  0  0
   -7.2288   -0.8015    1.2251 O   0  0  0  0  0  0  0  0  0  0  0  0
    0.3000    0.8253   -0.7034 C   0  0  0  0  0  0  0  0  0  0  0  0
    0.1935    1.6368   -1.8405 C   0  0  0  0  0  0  0  0  0  0  0  0
    1.3298    1.9171   -2.6001 C   0  0  0  0  0  0  0  0  0  0  0  0
    2.5672    1.3875   -2.2281 C   0  0  0  0  0  0  0  0  0  0  0  0
    2.6706    0.5609   -1.1050 C   0  0  0  0  0  0  0  0  0  0  0  0
    3.9370    0.0696   -0.6371 N   0  0  0  0  0  0  0  0  0  0  0  0
    4.6659    0.9732    0.2908 C   0  0  0  0  0  0  0  0  0  0  0  0
    6.0217    0.3977    0.7121 C   0  0  0  0  0  0  0  0  0  0  0  0
    6.0220   -1.1276    0.7310 C   0  0  0  0  0  0  0  0  0  0  0  0
    5.9319   -1.7204   -0.6719 C   0  0  0  0  0  0  0  0  0  0  0  0
    4.8794   -0.7767   -1.7678 S   0  0  0  0  0  6  0  0  0  0  0  0
    5.6974    0.1904   -2.4723 O   0  0  0  0  0  0  0  0  0  0  0  0
    4.0332   -1.7046   -2.4884 O   0  0  0  0  0  0  0  0  0  0  0  0
    1.5437    0.3102   -0.3227 C   0  0  0  0  0  0  0  0  0  0  0  0
   -1.9667    0.2013   -1.5595 H   0  0  0  0  0  0  0  0  0  0  0  0
   -4.1353   -0.3679   -2.0000 H   0  0  0  0  0  0  0  0  0  0  0  0
   -6.4168   -0.8400   -1.2090 H   0  0  0  0  0  0  0  0  0  0  0  0
   -2.8762    0.2781    2.0888 H   0  0  0  0  0  0  0  0  0  0  0  0
   -6.5927   -0.5761    4.5303 H   0  0  0  0  0  0  0  0  0  0  0  0
   -6.2214   -1.9339    3.4494 H   0  0  0  0  0  0  0  0  0  0  0  0
   -8.4339   -0.8450    2.8818 H   0  0  0  0  0  0  0  0  0  0  0  0
   -7.6035    0.6965    2.5917 H   0  0  0  0  0  0  0  0  0  0  0  0
   -0.7557    2.0846   -2.1233 H   0  0  0  0  0  0  0  0  0  0  0  0
    1.2586    2.5591   -3.4752 H   0  0  0  0  0  0  0  0  0  0  0  0
    3.4461    1.6308   -2.8207 H   0  0  0  0  0  0  0  0  0  0  0  0
    4.0532    1.0959    1.1930 H   0  0  0  0  0  0  0  0  0  0  0  0
    4.8008    1.9660   -0.1531 H   0  0  0  0  0  0  0  0  0  0  0  0
    6.8052    0.7550    0.0323 H   0  0  0  0  0  0  0  0  0  0  0  0
    6.2796    0.7851    1.7046 H   0  0  0  0  0  0  0  0  0  0  0  0
    5.1794   -1.4833    1.3372 H   0  0  0  0  0  0  0  0  0  0  0  0
    6.9321   -1.4976    1.2168 H   0  0  0  0  0  0  0  0  0  0  0  0
    5.5430   -2.7420   -0.6222 H   0  0  0  0  0  0  0  0  0  0  0  0
    6.9212   -1.7506   -1.1406 H   0  0  0  0  0  0  0  0  0  0  0  0
    1.6271   -0.2991    0.5742 H   0  0  0  0  0  0  0  0  0  0  0  0
  1  2  2  0
  2  3  1  0
  3  4  1  0
  4  5  2  0
  5  6  1  0
  6  7  2  0
  7  8  1  0
  8  9  2  0
  8 10  1  0
 10 11  1  0
 11 12  1  0
 12 13  1  0
  2 14  1  0
 14 15  2  0
 15 16  1  0
 16 17  2  0
 17 18  1  0
 18 19  1  0
 19 20  1  0
 20 21  1  0
 21 22  1  0
 22 23  1  0
 23 24  1  0
 24 25  2  0
 24 26  2  0
 18 27  2  0
  9  4  1  0
 27 14  1  0
 13  7  1  0
 24 19  1  0
  3 28  1  0
  5 29  1  0
  6 30  1  0
  9 31  1  0
 11 32  1  0
 11 33  1  0
 12 34  1  0
 12 35  1  0
 15 36  1  0
 16 37  1  0
 17 38  1  0
 20 39  1  0
 20 40  1  0
 21 41  1  0
 21 42  1  0
 22 43  1  0
 22 44  1  0
 23 45  1  0
 23 46  1  0
 27 47  1  0
M  END
$$$$
