
     RDKit          3D

 54 57  0  0  0  0  0  0  0  0999 V2000
    8.4329   -2.3045    1.4113 C   0  0  0  0  0  0  0  0  0  0  0  0
    7.7615   -1.0969    1.7469 O   0  0  0  0  0  0  0  0  0  0  0  0
    6.6254   -0.8056    1.0441 C   0  0  0  0  0  0  0  0  0  0  0  0
    6.0072    0.3926    1.4033 C   0  0  0  0  0  0  0  0  0  0  0  0
    4.8371    0.8140    0.7660 C   0  0  0  0  0  0  0  0  0  0  0  0
    4.2605    0.0386   -0.2486 C   0  0  0  0  0  0  0  0  0  0  0  0
    2.9900    0.4663   -0.9601 C   0  0  0  0  0  0  0  0  0  0  0  0
    3.1738    1.7928   -1.7078 C   0  0  0  0  0  0  0  0  0  0  0  0
    1.9056    2.2032   -2.4233 C   0  0  0  0  0  0  0  0  0  0  0  0
    1.9205    2.9196   -3.4193 O   0  0  0  0  0  0  0  0  0  0  0  0
    0.6220    1.7637   -1.8559 C   0  0  0  0  0  0  0  0  0  0  0  0
   -0.5793    2.1067   -2.4213 C   0  0  0  0  0  0  0  0  0  0  0  0
   -1.7703    1.7166   -1.9184 N   0  0  0  0  0  0  0  0  0  0  0  0
   -1.7716    0.9573   -0.8076 C   0  0  0  0  0  0  0  0  0  0  0  0
   -2.9900    0.5776   -0.2469 N   0  0  0  0  0  0  0  0  0  0  0  0
   -4.1154    0.5901   -1.1955 C   0  0  0  0  0  0  0  0  0  0  0  0
   -5.4446    0.2531   -0.4793 C   0  0  0  0  0  0  0  0  0  0  0  0
   -5.3710   -1.0225    0.2623 N   0  0  0  0  0  0  0  0  0  0  0  0
   -6.6536   -1.4286    0.8587 C   0  0  0  0  0  0  0  0  0  0  0  0
   -7.3685   -0.4534    1.8142 C   0  0  0  0  0  0  0  0  0  0  0  0
   -7.9871    0.6263    1.1198 O   0  0  0  0  0  0  0  0  0  0  0  0
   -4.2803   -0.9302    1.2538 C   0  0  0  0  0  0  0  0  0  0  0  0
   -2.9134   -0.6248    0.5958 C   0  0  0  0  0  0  0  0  0  0  0  0
   -0.6286    0.5831   -0.1981 N   0  0  0  0  0  0  0  0  0  0  0  0
    0.5515    0.9803   -0.7269 C   0  0  0  0  0  0  0  0  0  0  0  0
    1.7977    0.5601    0.0038 C   0  0  0  0  0  0  0  0  0  0  0  0
    4.8871   -1.1646   -0.6041 C   0  0  0  0  0  0  0  0  0  0  0  0
    6.0597   -1.5838    0.0363 C   0  0  0  0  0  0  0  0  0  0  0  0
    8.7794   -2.2883    0.3726 H   0  0  0  0  0  0  0  0  0  0  0  0
    9.3142   -2.3868    2.0547 H   0  0  0  0  0  0  0  0  0  0  0  0
    7.7980   -3.1757    1.6034 H   0  0  0  0  0  0  0  0  0  0  0  0
    6.4425    1.0060    2.1889 H   0  0  0  0  0  0  0  0  0  0  0  0
    4.3891    1.7548    1.0769 H   0  0  0  0  0  0  0  0  0  0  0  0
    2.7440   -0.2991   -1.7118 H   0  0  0  0  0  0  0  0  0  0  0  0
    3.4544    2.6106   -1.0340 H   0  0  0  0  0  0  0  0  0  0  0  0
    3.9674    1.6842   -2.4571 H   0  0  0  0  0  0  0  0  0  0  0  0
   -0.6348    2.7222   -3.3151 H   0  0  0  0  0  0  0  0  0  0  0  0
   -3.9416   -0.1395   -1.9979 H   0  0  0  0  0  0  0  0  0  0  0  0
   -4.2334    1.5807   -1.6523 H   0  0  0  0  0  0  0  0  0  0  0  0
   -5.6841    1.0825    0.1976 H   0  0  0  0  0  0  0  0  0  0  0  0
   -6.2365    0.1974   -1.2355 H   0  0  0  0  0  0  0  0  0  0  0  0
   -6.4923   -2.3735    1.3928 H   0  0  0  0  0  0  0  0  0  0  0  0
   -7.3361   -1.6685    0.0333 H   0  0  0  0  0  0  0  0  0  0  0  0
   -8.1593   -0.9876    2.3518 H   0  0  0  0  0  0  0  0  0  0  0  0
   -6.6880   -0.0406    2.5637 H   0  0  0  0  0  0  0  0  0  0  0  0
   -8.5583    0.2437    0.4323 H   0  0  0  0  0  0  0  0  0  0  0  0
   -4.1901   -1.8798    1.7947 H   0  0  0  0  0  0  0  0  0  0  0  0
   -4.4946   -0.1498    1.9946 H   0  0  0  0  0  0  0  0  0  0  0  0
   -2.6020   -1.4888   -0.0068 H   0  0  0  0  0  0  0  0  0  0  0  0
   -2.1848   -0.4923    1.4054 H   0  0  0  0  0  0  0  0  0  0  0  0
    1.6300   -0.4115    0.4855 H   0  0  0  0  0  0  0  0  0  0  0  0
    1.9849    1.2897    0.8012 H   0  0  0  0  0  0  0  0  0  0  0  0
    4.4697   -1.7943   -1.3877 H   0  0  0  0  0  0  0  0  0  0  0  0
    6.5033   -2.5227   -0.2777 H   0  0  0  0  0  0  0  0  0  0  0  0
  1  2  1  0
  2  3  1  0
  3  4  2  0
  4  5  1  0
  5  6  2  0
  6  7  1  0
  7  8  1  0
  8  9  1  0
  9 10  2  0
  9 11  1  0
 11 12  2  0
 12 13  1  0
 13 14  2  0
 14 15  1  0
 15 16  1  0
 16 17  1  0
 17 18  1  0
 18 19  1  0
 19 20  1  0
 20 21  1  0
 18 22  1  0
 22 23  1  0
 14 24  1  0
 24 25  2  0
 25 26  1  0
  6 27  1  0
 27 28  2  0
 28  3  1  0
 26  7  1  0
 25 11  1  0
 23 15  1  0
  1 29  1  0
  1 30  1  0
  1 31  1  0
  4 32  1  0
  5 33  1  0
  7 34  1  0
  8 35  1  0
  8 36  1  0
 12 37  1  0
 16 38  1  0
 16 39  1  0
 17 40  1  0
 17 41  1  0
 19 42  1  0
 19 43  1  0
 20 44  1  0
 20 45  1  0
 21 46  1  0
 22 47  1  0
 22 48  1  0
 23 49  1  0
 23 50  1  0
 26 51  1  0
 26 52  1  0
 27 53  1  0
 28 54  1  0
M  END
$$$$
