
     RDKit          3D

 48 49  0  0  0  0  0  0  0  0999 V2000
   -5.2781   -4.6197   -0.2083 C   0  0  0  0  0  0  0  0  0  0  0  0
   -4.4308   -3.4921   -0.0286 O   0  0  0  0  0  0  0  0  0  0  0  0
   -5.0414   -2.5026    0.7976 C   0  0  0  0  0  0  0  0  0  0  0  0
   -4.0697   -1.3444    1.0047 C   0  0  0  0  0  0  0  0  0  0  0  0
   -3.6592   -0.7000   -0.3260 C   0  0  0  0  0  0  0  0  0  0  0  0
   -2.8986    0.5449   -0.1466 N   0  0  0  0  0  0  0  0  0  0  0  0
   -1.5908    0.3291    0.4700 C   0  0  0  0  0  0  0  0  0  0  0  0
   -0.7044    1.4940    0.5015 N   0  0  0  0  0  0  0  0  0  0  0  0
   -0.8920    2.3838   -0.3930 C   0  0  0  0  0  0  0  0  0  0  0  0
   -0.0757    3.4982   -0.4739 N   0  0  0  0  0  0  0  0  0  0  0  0
    1.1710    3.9122    0.5499 S   0  0  0  0  0  6  0  0  0  0  0  0
    0.7340    3.8753    1.9271 O   0  0  0  0  0  0  0  0  0  0  0  0
    1.7244    5.1319   -0.0094 O   0  0  0  0  0  0  0  0  0  0  0  0
    2.3728    2.6326    0.2780 C   0  0  0  0  0  0  0  0  0  0  0  0
    2.4392    1.5431    1.1468 C   0  0  0  0  0  0  0  0  0  0  0  0
    3.4091    0.5532    0.9510 C   0  0  0  0  0  0  0  0  0  0  0  0
    4.3259    0.6549   -0.0985 C   0  0  0  0  0  0  0  0  0  0  0  0
    5.3366   -0.2938   -0.3578 N   0  0  0  0  0  0  0  0  0  0  0  0
    5.5754   -1.4767    0.3186 C   0  0  0  0  0  0  0  0  0  0  0  0
    6.7611   -2.2237   -0.2402 C   0  0  0  0  0  0  0  0  0  0  0  0
    4.9259   -1.9410    1.2482 O   0  0  0  0  0  0  0  0  0  0  0  0
    4.2615    1.7670   -0.9514 C   0  0  0  0  0  0  0  0  0  0  0  0
    3.2917    2.7568   -0.7656 C   0  0  0  0  0  0  0  0  0  0  0  0
   -1.8384    2.3701   -1.3542 N   0  0  0  0  0  0  0  0  0  0  0  0
   -2.6658    1.2034   -1.4192 C   0  0  0  0  0  0  0  0  0  0  0  0
   -5.4883   -5.0980    0.7532 H   0  0  0  0  0  0  0  0  0  0  0  0
   -4.7626   -5.3385   -0.8507 H   0  0  0  0  0  0  0  0  0  0  0  0
   -6.2123   -4.3229   -0.6947 H   0  0  0  0  0  0  0  0  0  0  0  0
   -5.9622   -2.1452    0.3222 H   0  0  0  0  0  0  0  0  0  0  0  0
   -5.2952   -2.9415    1.7694 H   0  0  0  0  0  0  0  0  0  0  0  0
   -3.1785   -1.7258    1.5165 H   0  0  0  0  0  0  0  0  0  0  0  0
   -4.5388   -0.5989    1.6576 H   0  0  0  0  0  0  0  0  0  0  0  0
   -3.0919   -1.4176   -0.9330 H   0  0  0  0  0  0  0  0  0  0  0  0
   -4.5772   -0.4689   -0.8820 H   0  0  0  0  0  0  0  0  0  0  0  0
   -1.7367    0.0278    1.5128 H   0  0  0  0  0  0  0  0  0  0  0  0
   -1.0507   -0.4901   -0.0232 H   0  0  0  0  0  0  0  0  0  0  0  0
   -0.2592    4.2224   -1.1542 H   0  0  0  0  0  0  0  0  0  0  0  0
    1.7349    1.4499    1.9720 H   0  0  0  0  0  0  0  0  0  0  0  0
    3.4227   -0.2822    1.6447 H   0  0  0  0  0  0  0  0  0  0  0  0
    5.9487   -0.0860   -1.1363 H   0  0  0  0  0  0  0  0  0  0  0  0
    6.4391   -2.8284   -1.0920 H   0  0  0  0  0  0  0  0  0  0  0  0
    7.5472   -1.5320   -0.5564 H   0  0  0  0  0  0  0  0  0  0  0  0
    7.1762   -2.8762    0.5333 H   0  0  0  0  0  0  0  0  0  0  0  0
    4.9681    1.8824   -1.7695 H   0  0  0  0  0  0  0  0  0  0  0  0
    3.2661    3.6182   -1.4287 H   0  0  0  0  0  0  0  0  0  0  0  0
   -1.6905    2.8822   -2.2071 H   0  0  0  0  0  0  0  0  0  0  0  0
   -3.6287    1.5059   -1.8476 H   0  0  0  0  0  0  0  0  0  0  0  0
   -2.2140    0.5068   -2.1390 H   0  0  0  0  0  0  0  0  0  0  0  0
  1  2  1  0
  2  3  1  0
  3  4  1  0
  4  5  1  0
  5  6  1  0
  6  7  1  0
  7  8  1  0
  8  9  2  0
  9 10  1  0
 10 11  1  0
 11 12  2  0
 11 13  2  0
 11 14  1  0
 14 15  2  0
 15 16  1  0
 16 17  2  0
 17 18  1  0
 18 19  1  0
 19 20  1  0
 19 21  2  0
 17 22  1  0
 22 23  2  0
  9 24  1  0
 24 25  1  0
 25  6  1  0
 23 14  1  0
  1 26  1  0
  1 27  1  0
  1 28  1  0
  3 29  1  0
  3 30  1  0
  4 31  1  0
  4 32  1  0
  5 33  1  0
  5 34  1  0
  7 35  1  0
  7 36  1  0
 10 37  1  0
 15 38  1  0
 16 39  1  0
 18 40  1  0
 20 41  1  0
 20 42  1  0
 20 43  1  0
 22 44  1  0
 23 45  1  0
 24 46  1  0
 25 47  1  0
 25 48  1  0
M  END
$$$$
