
     RDKit          3D

 48 51  0  0  0  0  0  0  0  0999 V2000
    8.4562    1.0007   -0.7469 C   0  0  0  0  0  0  0  0  0  0  0  0
    7.6789   -0.1328   -0.3804 O   0  0  0  0  0  0  0  0  0  0  0  0
    6.3379    0.0680   -0.2063 C   0  0  0  0  0  0  0  0  0  0  0  0
    5.6619    1.2781   -0.3569 C   0  0  0  0  0  0  0  0  0  0  0  0
    4.2793    1.3411   -0.1465 C   0  0  0  0  0  0  0  0  0  0  0  0
    3.5612    0.1948    0.2138 C   0  0  0  0  0  0  0  0  0  0  0  0
    2.1002    0.3004    0.4279 C   0  0  0  0  0  0  0  0  0  0  0  0
    1.4605    1.4275    0.4338 N   0  0  0  0  0  0  0  0  0  0  0  0
    0.0987    1.1284    0.6755 O   0  0  0  0  0  0  0  0  0  0  0  0
   -0.0966   -0.2676    0.3893 C   0  0  0  0  0  0  0  0  0  0  0  0
   -1.2092   -0.8273    1.2736 C   0  0  0  0  0  0  0  0  0  0  0  0
   -2.5858   -0.4416    0.7626 C   0  0  0  0  0  0  0  0  0  0  0  0
   -3.2067    0.7182    1.2911 C   0  0  0  0  0  0  0  0  0  0  0  0
   -4.4657    1.1274    0.8499 C   0  0  0  0  0  0  0  0  0  0  0  0
   -5.1562    2.2200    1.2874 O   0  0  0  0  0  0  0  0  0  0  0  0
   -4.4828    3.0896    2.1879 C   0  0  0  0  0  0  0  0  0  0  0  0
   -5.0756    0.3504   -0.1208 C   0  0  0  0  0  0  0  0  0  0  0  0
   -4.4798   -0.7761   -0.6573 C   0  0  0  0  0  0  0  0  0  0  0  0
   -3.2259   -1.1993   -0.2423 C   0  0  0  0  0  0  0  0  0  0  0  0
   -2.5210   -2.2772   -0.7020 O   0  0  0  0  0  0  0  0  0  0  0  0
   -3.1120   -3.0696   -1.7230 C   0  0  0  0  0  0  0  0  0  0  0  0
   -5.2781   -1.3563   -1.6001 O   0  0  0  0  0  0  0  0  0  0  0  0
   -6.4205   -0.4832   -1.5967 C   0  0  0  0  0  0  0  0  0  0  0  0
   -6.3049    0.5978   -0.6634 O   0  0  0  0  0  0  0  0  0  0  0  0
    1.2479   -0.8931    0.6907 C   0  0  0  0  0  0  0  0  0  0  0  0
    4.2383   -1.0171    0.3689 C   0  0  0  0  0  0  0  0  0  0  0  0
    5.6196   -1.0744    0.1574 C   0  0  0  0  0  0  0  0  0  0  0  0
    8.1396    1.3995   -1.7164 H   0  0  0  0  0  0  0  0  0  0  0  0
    8.4202    1.7718    0.0297 H   0  0  0  0  0  0  0  0  0  0  0  0
    9.4963    0.6751   -0.8447 H   0  0  0  0  0  0  0  0  0  0  0  0
    6.1753    2.1924   -0.6359 H   0  0  0  0  0  0  0  0  0  0  0  0
    3.7673    2.2943   -0.2675 H   0  0  0  0  0  0  0  0  0  0  0  0
   -0.3336   -0.3611   -0.6783 H   0  0  0  0  0  0  0  0  0  0  0  0
   -1.0970   -0.4636    2.3035 H   0  0  0  0  0  0  0  0  0  0  0  0
   -1.1436   -1.9208    1.3315 H   0  0  0  0  0  0  0  0  0  0  0  0
   -2.6703    1.2854    2.0471 H   0  0  0  0  0  0  0  0  0  0  0  0
   -5.1452    3.9360    2.3937 H   0  0  0  0  0  0  0  0  0  0  0  0
   -4.2788    2.5882    3.1397 H   0  0  0  0  0  0  0  0  0  0  0  0
   -3.5635    3.4865    1.7444 H   0  0  0  0  0  0  0  0  0  0  0  0
   -2.4087   -3.8725   -1.9656 H   0  0  0  0  0  0  0  0  0  0  0  0
   -4.0361   -3.5413   -1.3743 H   0  0  0  0  0  0  0  0  0  0  0  0
   -3.2688   -2.4878   -2.6368 H   0  0  0  0  0  0  0  0  0  0  0  0
   -6.5478   -0.0689   -2.6034 H   0  0  0  0  0  0  0  0  0  0  0  0
   -7.3106   -1.0719   -1.3470 H   0  0  0  0  0  0  0  0  0  0  0  0
    1.3576   -1.1806    1.7413 H   0  0  0  0  0  0  0  0  0  0  0  0
    1.4612   -1.7408    0.0366 H   0  0  0  0  0  0  0  0  0  0  0  0
    3.7224   -1.9269    0.6590 H   0  0  0  0  0  0  0  0  0  0  0  0
    6.1442   -2.0196    0.2795 H   0  0  0  0  0  0  0  0  0  0  0  0
  1  2  1  0
  2  3  1  0
  3  4  2  0
  4  5  1  0
  5  6  2  0
  6  7  1  0
  7  8  2  0
  8  9  1  0
  9 10  1  0
 10 11  1  0
 11 12  1  0
 12 13  2  0
 13 14  1  0
 14 15  1  0
 15 16  1  0
 14 17  2  0
 17 18  1  0
 18 19  2  0
 19 20  1  0
 20 21  1  0
 18 22  1  0
 22 23  1  0
 23 24  1  0
 10 25  1  0
  6 26  1  0
 26 27  2  0
 27  3  1  0
 25  7  1  0
 19 12  1  0
 24 17  1  0
  1 28  1  0
  1 29  1  0
  1 30  1  0
  4 31  1  0
  5 32  1  0
 10 33  1  0
 11 34  1  0
 11 35  1  0
 13 36  1  0
 16 37  1  0
 16 38  1  0
 16 39  1  0
 21 40  1  0
 21 41  1  0
 21 42  1  0
 23 43  1  0
 23 44  1  0
 25 45  1  0
 25 46  1  0
 26 47  1  0
 27 48  1  0
M  END
$$$$
