
     RDKit          3D

 43 44  0  0  0  0  0  0  0  0999 V2000
   -5.5803   -0.2716   -1.1860 C   0  0  0  0  0  0  0  0  0  0  0  0
   -5.1799    0.3764    0.1412 C   0  0  0  0  0  0  0  0  0  0  0  0
   -6.2395    1.3922    0.5685 C   0  0  0  0  0  0  0  0  0  0  0  0
   -3.8080    1.0555    0.0427 C   0  0  0  0  0  0  0  0  0  0  0  0
   -2.7403    0.0981   -0.1716 N   0  0  0  0  0  0  0  0  0  0  0  0
   -1.5000    0.5234   -0.6038 C   0  0  0  0  0  0  0  0  0  0  0  0
   -1.2455    1.6765   -0.9303 O   0  0  0  0  0  0  0  0  0  0  0  0
   -0.4319   -0.5092   -0.6278 C   0  0  0  0  0  0  0  0  0  0  0  0
   -0.7145   -1.8516   -0.9129 C   0  0  0  0  0  0  0  0  0  0  0  0
    0.3168   -2.7917   -0.9233 C   0  0  0  0  0  0  0  0  0  0  0  0
    1.6282   -2.3899   -0.6655 C   0  0  0  0  0  0  0  0  0  0  0  0
    1.9166   -1.0462   -0.4175 C   0  0  0  0  0  0  0  0  0  0  0  0
    3.2724   -0.6808   -0.1101 N   0  0  0  0  0  0  0  0  0  0  0  0
    3.8809    0.4090   -0.9204 C   0  0  0  0  0  0  0  0  0  0  0  0
    4.4460    1.5470   -0.0792 C   0  0  0  0  0  0  0  0  0  0  0  0
    5.5343    1.1117    0.9065 C   0  0  0  0  0  0  0  0  0  0  0  0
    5.3555   -0.2866    1.4826 C   0  0  0  0  0  0  0  0  0  0  0  0
    3.6451   -0.7647    1.5543 S   0  0  0  0  0  6  0  0  0  0  0  0
    2.9097    0.2648    2.2588 O   0  0  0  0  0  0  0  0  0  0  0  0
    3.5727   -2.1495    1.9715 O   0  0  0  0  0  0  0  0  0  0  0  0
    0.8851   -0.1069   -0.3805 C   0  0  0  0  0  0  0  0  0  0  0  0
   -6.5651   -0.7441   -1.1047 H   0  0  0  0  0  0  0  0  0  0  0  0
   -5.6266    0.4691   -1.9916 H   0  0  0  0  0  0  0  0  0  0  0  0
   -4.8658   -1.0474   -1.4794 H   0  0  0  0  0  0  0  0  0  0  0  0
   -5.1349   -0.4112    0.9045 H   0  0  0  0  0  0  0  0  0  0  0  0
   -5.9853    1.8350    1.5373 H   0  0  0  0  0  0  0  0  0  0  0  0
   -7.2196    0.9139    0.6675 H   0  0  0  0  0  0  0  0  0  0  0  0
   -6.3304    2.2036   -0.1618 H   0  0  0  0  0  0  0  0  0  0  0  0
   -3.5741    1.5830    0.9750 H   0  0  0  0  0  0  0  0  0  0  0  0
   -3.7946    1.7963   -0.7657 H   0  0  0  0  0  0  0  0  0  0  0  0
   -2.7728   -0.7609    0.3622 H   0  0  0  0  0  0  0  0  0  0  0  0
   -1.7268   -2.1729   -1.1432 H   0  0  0  0  0  0  0  0  0  0  0  0
    0.1023   -3.8372   -1.1308 H   0  0  0  0  0  0  0  0  0  0  0  0
    2.4268   -3.1280   -0.6554 H   0  0  0  0  0  0  0  0  0  0  0  0
    4.6868   -0.0382   -1.5153 H   0  0  0  0  0  0  0  0  0  0  0  0
    3.1598    0.8230   -1.6344 H   0  0  0  0  0  0  0  0  0  0  0  0
    4.8571    2.3204   -0.7393 H   0  0  0  0  0  0  0  0  0  0  0  0
    3.6293    2.0301    0.4714 H   0  0  0  0  0  0  0  0  0  0  0  0
    6.5168    1.1658    0.4221 H   0  0  0  0  0  0  0  0  0  0  0  0
    5.5647    1.8418    1.7249 H   0  0  0  0  0  0  0  0  0  0  0  0
    5.7653   -0.3480    2.4953 H   0  0  0  0  0  0  0  0  0  0  0  0
    5.8697   -1.0334    0.8678 H   0  0  0  0  0  0  0  0  0  0  0  0
    1.0938    0.9335   -0.1430 H   0  0  0  0  0  0  0  0  0  0  0  0
  1  2  1  0
  2  3  1  0
  2  4  1  0
  4  5  1  0
  5  6  1  0
  6  7  2  0
  6  8  1  0
  8  9  2  0
  9 10  1  0
 10 11  2  0
 11 12  1  0
 12 13  1  0
 13 14  1  0
 14 15  1  0
 15 16  1  0
 16 17  1  0
 17 18  1  0
 18 19  2  0
 18 20  2  0
 12 21  2  0
 21  8  1  0
 18 13  1  0
  1 22  1  0
  1 23  1  0
  1 24  1  0
  2 25  1  0
  3 26  1  0
  3 27  1  0
  3 28  1  0
  4 29  1  0
  4 30  1  0
  5 31  1  0
  9 32  1  0
 10 33  1  0
 11 34  1  0
 14 35  1  0
 14 36  1  0
 15 37  1  0
 15 38  1  0
 16 39  1  0
 16 40  1  0
 17 41  1  0
 17 42  1  0
 21 43  1  0
M  END
$$$$
