
     RDKit          3D

 51 56  0  0  0  0  0  0  0  0999 V2000
    0.6308   -1.4819    0.9600 O   0  0  0  0  0  0  0  0  0  0  0  0
    0.0979   -0.3701    0.9199 C   0  0  0  0  0  0  0  0  0  0  0  0
    0.9351    0.9224    0.8773 C   0  0  0  0  0  0  0  0  0  0  0  0
    2.3424    0.6539    0.5816 N   0  0  0  0  0  0  0  0  0  0  0  0
    3.2193    0.3741    1.6155 C   0  0  0  0  0  0  0  0  0  0  0  0
    4.4983    0.0638    1.3733 C   0  0  0  0  0  0  0  0  0  0  0  0
    4.9907    0.0003    0.0104 C   0  0  0  0  0  0  0  0  0  0  0  0
    4.1451    0.2417   -1.0090 C   0  0  0  0  0  0  0  0  0  0  0  0
    4.7195    0.1468   -2.3761 C   0  0  0  0  0  0  0  0  0  0  0  0
    5.9545   -0.1377   -2.6711 N   0  0  0  0  0  0  0  0  0  0  0  0
    6.7783   -0.3736   -1.6061 C   0  0  0  0  0  0  0  0  0  0  0  0
    8.1131   -0.6988   -1.5455 C   0  0  0  0  0  0  0  0  0  0  0  0
    8.3997   -0.8142   -0.1793 C   0  0  0  0  0  0  0  0  0  0  0  0
    7.3400   -0.5812    0.5953 N   0  0  0  0  0  0  0  0  0  0  0  0
    6.3276   -0.3129   -0.2787 N   0  0  0  0  0  0  0  0  0  0  0  0
    2.7240    0.5875   -0.7588 C   0  0  0  0  0  0  0  0  0  0  0  0
    1.9656    0.8129   -1.6991 O   0  0  0  0  0  0  0  0  0  0  0  0
   -1.2954   -0.2210    0.9885 N   0  0  0  0  0  0  0  0  0  0  0  0
   -1.9579    1.0458    0.6597 C   0  0  0  0  0  0  0  0  0  0  0  0
   -3.4752    1.0718    0.9398 C   0  0  2  0  0  0  0  0  0  0  0  0
   -3.8019    0.0726    2.0442 C   0  0  0  0  0  0  0  0  0  0  0  0
   -3.5240   -1.3136    1.4745 C   0  0  2  0  0  0  0  0  0  0  0  0
   -2.0916   -1.4470    0.9222 C   0  0  0  0  0  0  0  0  0  0  0  0
   -4.5496   -1.5865    0.3712 C   0  0  0  0  0  0  0  0  0  0  0  0
   -4.7077   -0.5076   -0.6026 N   0  0  0  0  0  0  0  0  0  0  0  0
   -4.2695    0.7916   -0.3290 C   0  0  0  0  0  0  0  0  0  0  0  0
   -4.5543    1.7852   -1.1909 C   0  0  0  0  0  0  0  0  0  0  0  0
   -5.2820    1.5290   -2.4047 C   0  0  0  0  0  0  0  0  0  0  0  0
   -5.7152    0.2970   -2.6887 C   0  0  0  0  0  0  0  0  0  0  0  0
   -5.4601   -0.8179   -1.7423 C   0  0  0  0  0  0  0  0  0  0  0  0
   -5.9173   -1.9301   -1.9944 O   0  0  0  0  0  0  0  0  0  0  0  0
    0.8570    1.4271    1.8470 H   0  0  0  0  0  0  0  0  0  0  0  0
    0.5426    1.5908    0.1053 H   0  0  0  0  0  0  0  0  0  0  0  0
    2.8286    0.4026    2.6289 H   0  0  0  0  0  0  0  0  0  0  0  0
    5.1812   -0.1642    2.1879 H   0  0  0  0  0  0  0  0  0  0  0  0
    4.0166    0.3417   -3.2037 H   0  0  0  0  0  0  0  0  0  0  0  0
    8.7780   -0.8321   -2.3859 H   0  0  0  0  0  0  0  0  0  0  0  0
    9.3449   -1.0593    0.2886 H   0  0  0  0  0  0  0  0  0  0  0  0
   -1.4856    1.8229    1.2723 H   0  0  0  0  0  0  0  0  0  0  0  0
   -1.7308    1.2843   -0.3865 H   0  0  0  0  0  0  0  0  0  0  0  0
   -3.7391    2.0781    1.2926 H   0  0  0  0  0  0  0  0  0  0  0  0
   -4.8502    0.1626    2.3555 H   0  0  0  0  0  0  0  0  0  0  0  0
   -3.1881    0.2589    2.9340 H   0  0  0  0  0  0  0  0  0  0  0  0
   -3.6656   -2.0676    2.2588 H   0  0  0  0  0  0  0  0  0  0  0  0
   -1.5767   -2.2294    1.4932 H   0  0  0  0  0  0  0  0  0  0  0  0
   -2.0822   -1.7795   -0.1234 H   0  0  0  0  0  0  0  0  0  0  0  0
   -4.3055   -2.5171   -0.1567 H   0  0  0  0  0  0  0  0  0  0  0  0
   -5.5387   -1.7412    0.8236 H   0  0  0  0  0  0  0  0  0  0  0  0
   -4.2332    2.8068   -1.0097 H   0  0  0  0  0  0  0  0  0  0  0  0
   -5.4664    2.3546   -3.0840 H   0  0  0  0  0  0  0  0  0  0  0  0
   -6.2672    0.0576   -3.5878 H   0  0  0  0  0  0  0  0  0  0  0  0
  1  2  2  0
  2  3  1  0
  3  4  1  0
  4  5  1  0
  5  6  2  0
  6  7  1  0
  7  8  2  0
  8  9  1  0
  9 10  2  0
 10 11  1  0
 11 12  2  0
 12 13  1  0
 13 14  2  0
 14 15  1  0
  8 16  1  0
 16 17  2  0
  2 18  1  0
 18 19  1  0
 19 20  1  0
 20 21  1  0
 21 22  1  0
 22 23  1  0
 22 24  1  0
 24 25  1  0
 25 26  1  0
 26 27  2  0
 27 28  1  0
 28 29  2  0
 29 30  1  0
 30 31  2  0
 16  4  1  0
 23 18  1  0
 30 25  1  0
 15  7  1  0
 26 20  1  0
 15 11  1  0
  3 32  1  0
  3 33  1  0
  5 34  1  0
  6 35  1  0
  9 36  1  0
 12 37  1  0
 13 38  1  0
 19 39  1  0
 19 40  1  0
 20 41  1  1
 21 42  1  0
 21 43  1  0
 22 44  1  1
 23 45  1  0
 23 46  1  0
 24 47  1  0
 24 48  1  0
 27 49  1  0
 28 50  1  0
 29 51  1  0
M  END
$$$$
