
     RDKit          3D

 34 36  0  0  0  0  0  0  0  0999 V2000
   -5.7517   -1.9578    0.3128 C   0  0  0  0  0  0  0  0  0  0  0  0
   -5.3190   -0.8545   -0.4726 O   0  0  0  0  0  0  0  0  0  0  0  0
   -4.0002   -0.5100   -0.3826 C   0  0  0  0  0  0  0  0  0  0  0  0
   -3.6222    0.5788   -1.1640 C   0  0  0  0  0  0  0  0  0  0  0  0
   -2.2985    1.0391   -1.1668 C   0  0  0  0  0  0  0  0  0  0  0  0
   -1.3160    0.4216   -0.3866 C   0  0  0  0  0  0  0  0  0  0  0  0
    0.0319    0.8764   -0.3734 N   0  0  0  0  0  0  0  0  0  0  0  0
    1.0450    0.2896    0.4751 C   0  0  0  0  0  0  0  0  0  0  0  0
    2.1815    1.2942    0.4507 C   0  0  0  0  0  0  0  0  0  0  0  0
    3.4919    0.6811    0.7421 C   0  0  0  0  0  0  0  0  0  0  0  0
    4.2623    0.8365    1.7967 N   0  0  0  0  0  0  0  0  0  0  0  0
    5.3668    0.0359    1.5854 N   0  0  0  0  0  0  0  0  0  0  0  0
    5.1883   -0.5470    0.4239 C   0  0  0  0  0  0  0  0  0  0  0  0
    5.9566   -1.4186   -0.2337 N   0  0  0  0  0  0  0  0  0  0  0  0
    4.0094   -0.2028   -0.1680 O   0  0  0  0  0  0  0  0  0  0  0  0
    2.0772    1.9114   -0.9323 C   0  0  0  0  0  0  0  0  0  0  0  0
    0.5971    1.8415   -1.2217 C   0  0  0  0  0  0  0  0  0  0  0  0
    0.0693    2.5099   -2.0967 O   0  0  0  0  0  0  0  0  0  0  0  0
   -1.7111   -0.6754    0.3960 C   0  0  0  0  0  0  0  0  0  0  0  0
   -3.0368   -1.1377    0.3995 C   0  0  0  0  0  0  0  0  0  0  0  0
   -5.6196   -1.7579    1.3813 H   0  0  0  0  0  0  0  0  0  0  0  0
   -6.8214   -2.0991    0.1304 H   0  0  0  0  0  0  0  0  0  0  0  0
   -5.2388   -2.8786    0.0161 H   0  0  0  0  0  0  0  0  0  0  0  0
   -4.3624    1.0830   -1.7813 H   0  0  0  0  0  0  0  0  0  0  0  0
   -2.0781    1.8986   -1.7923 H   0  0  0  0  0  0  0  0  0  0  0  0
    0.6802    0.1580    1.4996 H   0  0  0  0  0  0  0  0  0  0  0  0
    1.3259   -0.6847    0.0569 H   0  0  0  0  0  0  0  0  0  0  0  0
    1.9783    2.0762    1.1956 H   0  0  0  0  0  0  0  0  0  0  0  0
    5.5055   -2.0049   -0.9243 H   0  0  0  0  0  0  0  0  0  0  0  0
    6.6583   -1.8970    0.3197 H   0  0  0  0  0  0  0  0  0  0  0  0
    2.6090    1.3491   -1.7069 H   0  0  0  0  0  0  0  0  0  0  0  0
    2.4202    2.9502   -0.9338 H   0  0  0  0  0  0  0  0  0  0  0  0
   -1.0025   -1.2134    1.0182 H   0  0  0  0  0  0  0  0  0  0  0  0
   -3.2764   -1.9916    1.0243 H   0  0  0  0  0  0  0  0  0  0  0  0
  1  2  1  0
  2  3  1  0
  3  4  2  0
  4  5  1  0
  5  6  2  0
  6  7  1  0
  7  8  1  0
  8  9  1  0
  9 10  1  0
 10 11  2  0
 11 12  1  0
 12 13  2  0
 13 14  1  0
 13 15  1  0
  9 16  1  0
 16 17  1  0
 17 18  2  0
  6 19  1  0
 19 20  2  0
 20  3  1  0
 17  7  1  0
 15 10  1  0
  1 21  1  0
  1 22  1  0
  1 23  1  0
  4 24  1  0
  5 25  1  0
  8 26  1  0
  8 27  1  0
  9 28  1  0
 14 29  1  0
 14 30  1  0
 16 31  1  0
 16 32  1  0
 19 33  1  0
 20 34  1  0
M  END
$$$$
