
     RDKit          3D

 46 49  0  0  0  0  0  0  0  0999 V2000
   -6.0090    2.2956    0.7842 C   0  0  0  0  0  0  0  0  0  0  0  0
   -5.7396    0.9295    0.5048 O   0  0  0  0  0  0  0  0  0  0  0  0
   -4.4251    0.5585    0.3385 C   0  0  0  0  0  0  0  0  0  0  0  0
   -3.3419    1.4436    0.4506 C   0  0  0  0  0  0  0  0  0  0  0  0
   -2.0622    0.9460    0.2612 C   0  0  0  0  0  0  0  0  0  0  0  0
   -1.8688   -0.4282   -0.0382 C   0  0  0  0  0  0  0  0  0  0  0  0
   -2.9145   -1.3171   -0.1542 C   0  0  0  0  0  0  0  0  0  0  0  0
   -4.2109   -0.8196    0.0364 C   0  0  0  0  0  0  0  0  0  0  0  0
   -5.3486   -1.5896   -0.0470 O   0  0  0  0  0  0  0  0  0  0  0  0
   -5.1951   -2.9638   -0.3692 C   0  0  0  0  0  0  0  0  0  0  0  0
   -0.4602   -0.5781   -0.1633 C   0  0  0  0  0  0  0  0  0  0  0  0
    0.1737    0.6143    0.0428 C   0  0  0  0  0  0  0  0  0  0  0  0
    1.5497    0.3575   -0.1145 C   0  0  0  0  0  0  0  0  0  0  0  0
    2.6228    1.3707   -0.0389 C   0  0  0  0  0  0  0  0  0  0  0  0
    2.3435    2.5639   -0.1901 O   0  0  0  0  0  0  0  0  0  0  0  0
    3.9500    0.9847    0.1893 N   0  0  0  0  0  0  0  0  0  0  0  0
    4.4008   -0.3386    0.6223 C   0  0  0  0  0  0  0  0  0  0  0  0
    5.1770   -1.0485   -0.4830 C   0  0  0  0  0  0  0  0  0  0  0  0
    6.6560   -0.1125   -1.0418 S   0  0  0  0  0  0  0  0  0  0  0  0
    6.4227    1.4357   -0.0950 C   0  0  0  0  0  0  0  0  0  0  0  0
    4.9864    1.9616   -0.1431 C   0  0  0  0  0  0  0  0  0  0  0  0
    1.7314   -0.9511   -0.4374 N   0  0  0  0  0  0  0  0  0  0  0  0
    0.4831   -1.4910   -0.4537 N   0  0  0  0  0  0  0  0  0  0  0  0
    0.2981   -2.8818   -0.7776 C   0  0  0  0  0  0  0  0  0  0  0  0
   -0.7459    1.7475    0.3367 C   0  0  0  0  0  0  0  0  0  0  0  0
   -7.0935    2.4110    0.8737 H   0  0  0  0  0  0  0  0  0  0  0  0
   -5.6733    2.9406   -0.0344 H   0  0  0  0  0  0  0  0  0  0  0  0
   -5.5634    2.5991    1.7372 H   0  0  0  0  0  0  0  0  0  0  0  0
   -3.4698    2.4947    0.6777 H   0  0  0  0  0  0  0  0  0  0  0  0
   -2.7180   -2.3546   -0.3831 H   0  0  0  0  0  0  0  0  0  0  0  0
   -6.1924   -3.4129   -0.4037 H   0  0  0  0  0  0  0  0  0  0  0  0
   -4.6213   -3.4884    0.4018 H   0  0  0  0  0  0  0  0  0  0  0  0
   -4.7398   -3.0900   -1.3570 H   0  0  0  0  0  0  0  0  0  0  0  0
    3.5748   -0.9554    0.9768 H   0  0  0  0  0  0  0  0  0  0  0  0
    5.0320   -0.1984    1.5092 H   0  0  0  0  0  0  0  0  0  0  0  0
    5.5124   -2.0303   -0.1348 H   0  0  0  0  0  0  0  0  0  0  0  0
    4.5404   -1.2055   -1.3597 H   0  0  0  0  0  0  0  0  0  0  0  0
    6.7293    1.2478    0.9397 H   0  0  0  0  0  0  0  0  0  0  0  0
    7.1068    2.1904   -0.4962 H   0  0  0  0  0  0  0  0  0  0  0  0
    4.8842    2.8038    0.5521 H   0  0  0  0  0  0  0  0  0  0  0  0
    4.7703    2.3522   -1.1460 H   0  0  0  0  0  0  0  0  0  0  0  0
    1.2715   -3.3543   -0.9323 H   0  0  0  0  0  0  0  0  0  0  0  0
   -0.2196   -3.3654    0.0544 H   0  0  0  0  0  0  0  0  0  0  0  0
   -0.2968   -2.9475   -1.6918 H   0  0  0  0  0  0  0  0  0  0  0  0
   -0.7142    2.5187   -0.4367 H   0  0  0  0  0  0  0  0  0  0  0  0
   -0.5933    2.1553    1.3388 H   0  0  0  0  0  0  0  0  0  0  0  0
  1  2  1  0
  2  3  1  0
  3  4  2  0
  4  5  1  0
  5  6  2  0
  6  7  1  0
  7  8  2  0
  8  9  1  0
  9 10  1  0
  6 11  1  0
 11 12  2  0
 12 13  1  0
 13 14  1  0
 14 15  2  0
 14 16  1  0
 16 17  1  0
 17 18  1  0
 18 19  1  0
 19 20  1  0
 20 21  1  0
 13 22  2  0
 22 23  1  0
 23 24  1  0
 12 25  1  0
  8  3  1  0
 23 11  1  0
 25  5  1  0
 21 16  1  0
  1 26  1  0
  1 27  1  0
  1 28  1  0
  4 29  1  0
  7 30  1  0
 10 31  1  0
 10 32  1  0
 10 33  1  0
 17 34  1  0
 17 35  1  0
 18 36  1  0
 18 37  1  0
 20 38  1  0
 20 39  1  0
 21 40  1  0
 21 41  1  0
 24 42  1  0
 24 43  1  0
 24 44  1  0
 25 45  1  0
 25 46  1  0
M  END
$$$$
