
     RDKit          3D

 37 39  0  0  0  0  0  0  0  0999 V2000
    6.4572   -1.5960    1.2124 C   0  0  0  0  0  0  0  0  0  0  0  0
    5.7309   -0.6896    2.1903 C   0  0  0  0  0  0  0  0  0  0  0  0
    4.5622   -0.0293    1.5257 C   0  0  0  0  0  0  0  0  0  0  0  0
    3.3920   -0.5765    1.4267 N   0  0  0  0  0  0  0  0  0  0  0  0
    2.5573    0.2853    0.7476 N   0  0  0  0  0  0  0  0  0  0  0  0
    1.2392   -0.0283    0.4919 C   0  0  0  0  0  0  0  0  0  0  0  0
    0.6625   -1.0661    0.8206 O   0  0  0  0  0  0  0  0  0  0  0  0
    0.4871    1.0368   -0.2625 C   0  0  0  0  0  0  0  0  0  0  0  0
   -0.8360    0.7536   -0.5332 N   0  0  0  0  0  0  0  0  0  0  0  0
   -1.7712    1.5170   -1.1964 C   0  0  0  0  0  0  0  0  0  0  0  0
   -1.5387    2.6271   -1.6679 O   0  0  0  0  0  0  0  0  0  0  0  0
   -3.1548    0.9366   -1.3405 C   0  0  0  0  0  0  0  0  0  0  0  0
   -4.0942    1.7348   -2.0221 C   0  0  0  0  0  0  0  0  0  0  0  0
   -5.4047    1.2999   -2.2147 C   0  0  0  0  0  0  0  0  0  0  0  0
   -5.7957    0.0591   -1.7282 C   0  0  0  0  0  0  0  0  0  0  0  0
   -4.8795   -0.7482   -1.0494 C   0  0  0  0  0  0  0  0  0  0  0  0
   -3.5571   -0.3243   -0.8477 C   0  0  0  0  0  0  0  0  0  0  0  0
   -2.6200   -1.0777   -0.1887 O   0  0  0  0  0  0  0  0  0  0  0  0
   -3.0064   -2.3521    0.3149 C   0  0  0  0  0  0  0  0  0  0  0  0
    1.1678    2.1469   -0.5959 C   0  0  0  0  0  0  0  0  0  0  0  0
    2.4920    2.4014   -0.3113 N   0  0  0  0  0  0  0  0  0  0  0  0
    3.1047    1.4703    0.3352 C   0  0  0  0  0  0  0  0  0  0  0  0
    4.7699    1.5505    0.8100 S   0  0  0  0  0  0  0  0  0  0  0  0
    6.8517   -1.0269    0.3641 H   0  0  0  0  0  0  0  0  0  0  0  0
    7.2949   -2.0969    1.7073 H   0  0  0  0  0  0  0  0  0  0  0  0
    5.7859   -2.3640    0.8137 H   0  0  0  0  0  0  0  0  0  0  0  0
    6.4180    0.0645    2.5882 H   0  0  0  0  0  0  0  0  0  0  0  0
    5.3618   -1.2807    3.0358 H   0  0  0  0  0  0  0  0  0  0  0  0
   -1.1474   -0.1556   -0.1844 H   0  0  0  0  0  0  0  0  0  0  0  0
   -3.8053    2.7107   -2.4104 H   0  0  0  0  0  0  0  0  0  0  0  0
   -6.1147    1.9310   -2.7435 H   0  0  0  0  0  0  0  0  0  0  0  0
   -6.8170   -0.2844   -1.8762 H   0  0  0  0  0  0  0  0  0  0  0  0
   -5.2349   -1.7086   -0.6892 H   0  0  0  0  0  0  0  0  0  0  0  0
   -2.1328   -2.7957    0.8023 H   0  0  0  0  0  0  0  0  0  0  0  0
   -3.3102   -3.0207   -0.4970 H   0  0  0  0  0  0  0  0  0  0  0  0
   -3.7947   -2.2551    1.0683 H   0  0  0  0  0  0  0  0  0  0  0  0
    0.6802    2.9511   -1.1408 H   0  0  0  0  0  0  0  0  0  0  0  0
  1  2  1  0
  2  3  1  0
  3  4  2  0
  4  5  1  0
  5  6  1  0
  6  7  2  0
  6  8  1  0
  8  9  1  0
  9 10  1  0
 10 11  2  0
 10 12  1  0
 12 13  2  0
 13 14  1  0
 14 15  2  0
 15 16  1  0
 16 17  2  0
 17 18  1  0
 18 19  1  0
  8 20  2  0
 20 21  1  0
 21 22  2  0
 22 23  1  0
 23  3  1  0
 22  5  1  0
 17 12  1  0
  1 24  1  0
  1 25  1  0
  1 26  1  0
  2 27  1  0
  2 28  1  0
  9 29  1  0
 13 30  1  0
 14 31  1  0
 15 32  1  0
 16 33  1  0
 19 34  1  0
 19 35  1  0
 19 36  1  0
 20 37  1  0
M  END
$$$$
