
     RDKit          3D

 41 43  0  0  0  0  0  0  0  0999 V2000
   -2.8283   -3.4559    0.2951 C   0  0  0  0  0  0  0  0  0  0  0  0
   -2.3057   -2.8078   -0.9790 C   0  0  0  0  0  0  0  0  0  0  0  0
   -1.4847   -1.6227   -0.6722 N   0  0  0  0  0  0  0  0  0  0  0  0
   -0.1081   -1.7381   -0.5260 C   0  0  0  0  0  0  0  0  0  0  0  0
    0.7569   -0.7547   -0.2366 C   0  0  0  0  0  0  0  0  0  0  0  0
    2.2127   -1.0838   -0.1254 C   0  0  0  0  0  0  0  0  0  0  0  0
    2.6027   -2.2366   -0.2892 O   0  0  0  0  0  0  0  0  0  0  0  0
    3.0177   -0.0044    0.1655 N   0  0  0  0  0  0  0  0  0  0  0  0
    4.4168    0.0003    0.3315 C   0  0  0  0  0  0  0  0  0  0  0  0
    5.0275    1.2220    0.6245 C   0  0  0  0  0  0  0  0  0  0  0  0
    6.4086    1.2878    0.7994 C   0  0  0  0  0  0  0  0  0  0  0  0
    7.1421    0.1211    0.6752 C   0  0  0  0  0  0  0  0  0  0  0  0
    6.5942   -1.0785    0.3937 N   0  0  0  0  0  0  0  0  0  0  0  0
    5.2452   -1.1134    0.2281 C   0  0  0  0  0  0  0  0  0  0  0  0
    0.1817    0.5979   -0.0487 C   0  0  0  0  0  0  0  0  0  0  0  0
    0.9038    1.5615    0.2021 O   0  0  0  0  0  0  0  0  0  0  0  0
   -1.2895    0.7553   -0.1653 C   0  0  0  0  0  0  0  0  0  0  0  0
   -1.8447    2.0283    0.0381 C   0  0  0  0  0  0  0  0  0  0  0  0
   -3.2199    2.2211   -0.0533 C   0  0  0  0  0  0  0  0  0  0  0  0
   -3.6368    3.5032    0.1656 O   0  0  0  0  0  0  0  0  0  0  0  0
   -5.0343    3.7529    0.0797 C   0  0  0  0  0  0  0  0  0  0  0  0
   -4.0332    1.1315   -0.3476 C   0  0  0  0  0  0  0  0  0  0  0  0
   -3.4747   -0.1410   -0.5518 C   0  0  0  0  0  0  0  0  0  0  0  0
   -2.0915   -0.3640   -0.4693 C   0  0  0  0  0  0  0  0  0  0  0  0
   -3.4696   -2.7747    0.8625 H   0  0  0  0  0  0  0  0  0  0  0  0
   -2.0030   -3.7579    0.9487 H   0  0  0  0  0  0  0  0  0  0  0  0
   -3.4130   -4.3487    0.0524 H   0  0  0  0  0  0  0  0  0  0  0  0
   -3.1260   -2.5697   -1.6649 H   0  0  0  0  0  0  0  0  0  0  0  0
   -1.6988   -3.5464   -1.5194 H   0  0  0  0  0  0  0  0  0  0  0  0
    0.2543   -2.7549   -0.6734 H   0  0  0  0  0  0  0  0  0  0  0  0
    2.5481    0.8970    0.2728 H   0  0  0  0  0  0  0  0  0  0  0  0
    4.4392    2.1309    0.7192 H   0  0  0  0  0  0  0  0  0  0  0  0
    6.8987    2.2276    1.0271 H   0  0  0  0  0  0  0  0  0  0  0  0
    8.2208    0.1196    0.8023 H   0  0  0  0  0  0  0  0  0  0  0  0
    4.8647   -2.1040    0.0041 H   0  0  0  0  0  0  0  0  0  0  0  0
   -1.2026    2.8755    0.2707 H   0  0  0  0  0  0  0  0  0  0  0  0
   -5.5835    3.1861    0.8388 H   0  0  0  0  0  0  0  0  0  0  0  0
   -5.1966    4.8171    0.2763 H   0  0  0  0  0  0  0  0  0  0  0  0
   -5.4124    3.5380   -0.9252 H   0  0  0  0  0  0  0  0  0  0  0  0
   -5.1115    1.2299   -0.4264 H   0  0  0  0  0  0  0  0  0  0  0  0
   -4.1671   -0.9475   -0.7717 H   0  0  0  0  0  0  0  0  0  0  0  0
  1  2  1  0
  2  3  1  0
  3  4  1  0
  4  5  2  0
  5  6  1  0
  6  7  2  0
  6  8  1  0
  8  9  1  0
  9 10  2  0
 10 11  1  0
 11 12  2  0
 12 13  1  0
 13 14  2  0
  5 15  1  0
 15 16  2  0
 15 17  1  0
 17 18  2  0
 18 19  1  0
 19 20  1  0
 20 21  1  0
 19 22  2  0
 22 23  1  0
 23 24  2  0
 24  3  1  0
 14  9  1  0
 24 17  1  0
  1 25  1  0
  1 26  1  0
  1 27  1  0
  2 28  1  0
  2 29  1  0
  4 30  1  0
  8 31  1  0
 10 32  1  0
 11 33  1  0
 12 34  1  0
 14 35  1  0
 18 36  1  0
 21 37  1  0
 21 38  1  0
 21 39  1  0
 22 40  1  0
 23 41  1  0
M  END
$$$$
