
     RDKit          3D

 45 47  0  0  0  0  0  0  0  0999 V2000
    3.7822   -1.2848    1.4855 C   0  0  0  0  0  0  0  0  0  0  0  0
    3.6576   -0.1447    0.4652 C   0  0  0  0  0  0  0  0  0  0  0  0
    3.2517    1.1490    1.1719 C   0  0  0  0  0  0  0  0  0  0  0  0
    4.9631    0.0619   -0.1061 O   0  0  0  0  0  0  0  0  0  0  0  0
    5.0537   -0.5864   -1.3037 C   0  0  0  0  0  0  0  0  0  0  0  0
    6.0755   -0.6631   -1.9646 O   0  0  0  0  0  0  0  0  0  0  0  0
    3.7358   -1.1902   -1.6704 C   0  0  0  0  0  0  0  0  0  0  0  0
    2.7797   -0.4567   -0.7475 C   0  0  0  0  0  0  0  0  0  0  0  0
    1.5379   -1.2585   -0.4132 C   0  0  0  0  0  0  0  0  0  0  0  0
    1.4345   -2.4598   -0.6279 O   0  0  0  0  0  0  0  0  0  0  0  0
    0.5449   -0.5106    0.1846 N   0  0  0  0  0  0  0  0  0  0  0  0
   -0.7617   -1.0967    0.4541 C   0  0  0  0  0  0  0  0  0  0  0  0
   -1.5525   -0.3273    1.5131 C   0  0  0  0  0  0  0  0  0  0  0  0
   -1.7823    1.0611    1.1604 N   0  0  0  0  0  0  0  0  0  0  0  0
   -1.1149    2.1194    1.7222 C   0  0  0  0  0  0  0  0  0  0  0  0
   -1.5095    3.2161    1.0003 C   0  0  0  0  0  0  0  0  0  0  0  0
   -2.3937    2.8516    0.0236 N   0  0  0  0  0  0  0  0  0  0  0  0
   -2.5974    1.5529    0.1610 C   0  0  0  0  0  0  0  0  0  0  0  0
   -3.4965    0.7596   -0.6768 C   0  0  0  0  0  0  0  0  0  0  0  0
   -3.3612    0.8105   -2.0699 C   0  0  0  0  0  0  0  0  0  0  0  0
   -4.1918    0.0459   -2.8920 C   0  0  0  0  0  0  0  0  0  0  0  0
   -5.1722   -0.7677   -2.3284 C   0  0  0  0  0  0  0  0  0  0  0  0
   -5.3312   -0.8077   -0.9461 C   0  0  0  0  0  0  0  0  0  0  0  0
   -4.5026   -0.0414   -0.1227 C   0  0  0  0  0  0  0  0  0  0  0  0
    2.8402   -1.4691    2.0114 H   0  0  0  0  0  0  0  0  0  0  0  0
    4.1034   -2.2187    1.0075 H   0  0  0  0  0  0  0  0  0  0  0  0
    4.5482   -1.0486    2.2329 H   0  0  0  0  0  0  0  0  0  0  0  0
    3.9913    1.4223    1.9338 H   0  0  0  0  0  0  0  0  0  0  0  0
    3.2171    1.9867    0.4665 H   0  0  0  0  0  0  0  0  0  0  0  0
    2.2768    1.0618    1.6582 H   0  0  0  0  0  0  0  0  0  0  0  0
    3.7799   -2.2696   -1.4955 H   0  0  0  0  0  0  0  0  0  0  0  0
    3.5011   -0.9910   -2.7206 H   0  0  0  0  0  0  0  0  0  0  0  0
    2.4731    0.4711   -1.2510 H   0  0  0  0  0  0  0  0  0  0  0  0
    0.5576    0.4883   -0.0038 H   0  0  0  0  0  0  0  0  0  0  0  0
   -0.6217   -2.1297    0.7897 H   0  0  0  0  0  0  0  0  0  0  0  0
   -1.2974   -1.1343   -0.4992 H   0  0  0  0  0  0  0  0  0  0  0  0
   -2.5217   -0.7966    1.6986 H   0  0  0  0  0  0  0  0  0  0  0  0
   -1.0049   -0.3373    2.4634 H   0  0  0  0  0  0  0  0  0  0  0  0
   -0.4294    2.0076    2.5507 H   0  0  0  0  0  0  0  0  0  0  0  0
   -1.2001    4.2453    1.1250 H   0  0  0  0  0  0  0  0  0  0  0  0
   -2.6022    1.4488   -2.5181 H   0  0  0  0  0  0  0  0  0  0  0  0
   -4.0735    0.0873   -3.9721 H   0  0  0  0  0  0  0  0  0  0  0  0
   -5.8188   -1.3607   -2.9702 H   0  0  0  0  0  0  0  0  0  0  0  0
   -6.1055   -1.4332   -0.5085 H   0  0  0  0  0  0  0  0  0  0  0  0
   -4.6629   -0.0630    0.9516 H   0  0  0  0  0  0  0  0  0  0  0  0
  1  2  1  0
  2  3  1  0
  2  4  1  0
  4  5  1  0
  5  6  2  0
  5  7  1  0
  7  8  1  0
  8  9  1  0
  9 10  2  0
  9 11  1  0
 11 12  1  0
 12 13  1  0
 13 14  1  0
 14 15  1  0
 15 16  2  0
 16 17  1  0
 17 18  2  0
 18 19  1  0
 19 20  2  0
 20 21  1  0
 21 22  2  0
 22 23  1  0
 23 24  2  0
  8  2  1  0
 18 14  1  0
 24 19  1  0
  1 25  1  0
  1 26  1  0
  1 27  1  0
  3 28  1  0
  3 29  1  0
  3 30  1  0
  7 31  1  0
  7 32  1  0
  8 33  1  0
 11 34  1  0
 12 35  1  0
 12 36  1  0
 13 37  1  0
 13 38  1  0
 15 39  1  0
 16 40  1  0
 20 41  1  0
 21 42  1  0
 22 43  1  0
 23 44  1  0
 24 45  1  0
M  END
$$$$
