
     RDKit          3D

 32 33  0  0  0  0  0  0  0  0999 V2000
   -2.5311   -0.9038   -2.2452 C   0  0  0  0  0  0  0  0  0  0  0  0
   -1.5607   -0.0218   -1.5033 C   0  0  0  0  0  0  0  0  0  0  0  0
   -0.4712    0.2766   -1.9970 O   0  0  0  0  0  0  0  0  0  0  0  0
   -1.9273    0.4085   -0.2480 N   0  0  0  0  0  0  0  0  0  0  0  0
   -3.2787    0.3321    0.2904 C   0  0  0  0  0  0  0  0  0  0  0  0
   -3.4358    1.6200    1.0785 C   0  0  0  0  0  0  0  0  0  0  0  0
   -2.0457    1.8246    1.6572 C   0  0  0  0  0  0  0  0  0  0  0  0
   -1.1044    1.3555    0.5348 C   0  0  1  0  0  0  0  0  0  0  0  0
    0.2140    0.7841    1.1246 C   0  0  0  0  0  0  0  0  0  0  0  0
    0.4992    0.9361    2.3104 O   0  0  0  0  0  0  0  0  0  0  0  0
    1.0366    0.2294    0.1675 N   0  0  0  0  0  0  0  0  0  0  0  0
    2.2686   -0.3432    0.4010 C   0  0  0  0  0  0  0  0  0  0  0  0
    3.0794   -0.8804   -0.6290 C   0  0  0  0  0  0  0  0  0  0  0  0
    4.1978   -1.3468    0.0144 C   0  0  0  0  0  0  0  0  0  0  0  0
    5.4356   -2.0152   -0.4187 C   0  0  0  0  0  0  0  0  0  0  0  0
    4.0717   -1.1107    1.3456 O   0  0  0  0  0  0  0  0  0  0  0  0
    2.8645   -0.4854    1.5883 N   0  0  0  0  0  0  0  0  0  0  0  0
   -3.3310   -0.2952   -2.6742 H   0  0  0  0  0  0  0  0  0  0  0  0
   -2.0045   -1.4159   -3.0564 H   0  0  0  0  0  0  0  0  0  0  0  0
   -2.9468   -1.6670   -1.5819 H   0  0  0  0  0  0  0  0  0  0  0  0
   -4.0395    0.2380   -0.4880 H   0  0  0  0  0  0  0  0  0  0  0  0
   -3.3223   -0.5432    0.9478 H   0  0  0  0  0  0  0  0  0  0  0  0
   -4.2127    1.5546    1.8451 H   0  0  0  0  0  0  0  0  0  0  0  0
   -3.6828    2.4494    0.4050 H   0  0  0  0  0  0  0  0  0  0  0  0
   -1.8603    2.8641    1.9440 H   0  0  0  0  0  0  0  0  0  0  0  0
   -1.9423    1.2072    2.5580 H   0  0  0  0  0  0  0  0  0  0  0  0
   -0.8470    2.1976   -0.1203 H   0  0  0  0  0  0  0  0  0  0  0  0
    0.7193    0.2432   -0.8002 H   0  0  0  0  0  0  0  0  0  0  0  0
    2.8740   -0.9180   -1.6878 H   0  0  0  0  0  0  0  0  0  0  0  0
    5.4873   -2.0764   -1.5101 H   0  0  0  0  0  0  0  0  0  0  0  0
    6.3140   -1.4652   -0.0674 H   0  0  0  0  0  0  0  0  0  0  0  0
    5.4821   -3.0326   -0.0182 H   0  0  0  0  0  0  0  0  0  0  0  0
  1  2  1  0
  2  3  2  0
  2  4  1  0
  4  5  1  0
  5  6  1  0
  6  7  1  0
  7  8  1  0
  8  9  1  0
  9 10  2  0
  9 11  1  0
 11 12  1  0
 12 13  1  0
 13 14  2  0
 14 15  1  0
 14 16  1  0
 16 17  1  0
  8  4  1  0
 17 12  2  0
  1 18  1  0
  1 19  1  0
  1 20  1  0
  5 21  1  0
  5 22  1  0
  6 23  1  0
  6 24  1  0
  7 25  1  0
  7 26  1  0
  8 27  1  6
 11 28  1  0
 13 29  1  0
 15 30  1  0
 15 31  1  0
 15 32  1  0
M  END
$$$$
