
     RDKit          3D

 44 46  0  0  0  0  0  0  0  0999 V2000
    6.3224   -2.2679    0.9593 C   0  0  0  0  0  0  0  0  0  0  0  0
    5.8140   -0.9846    1.3048 O   0  0  0  0  0  0  0  0  0  0  0  0
    4.6649   -0.5838    0.6797 C   0  0  0  0  0  0  0  0  0  0  0  0
    3.9529   -1.3145   -0.2675 C   0  0  0  0  0  0  0  0  0  0  0  0
    2.7888   -0.7808   -0.8232 C   0  0  0  0  0  0  0  0  0  0  0  0
    2.3257    0.4837   -0.4298 C   0  0  0  0  0  0  0  0  0  0  0  0
    1.0707    0.9659   -1.0657 C   0  0  0  0  0  0  0  0  0  0  0  0
    0.8585    0.6889   -2.2469 O   0  0  0  0  0  0  0  0  0  0  0  0
    0.0862    1.7710   -0.2282 C   0  0  0  0  0  0  0  0  0  0  0  0
   -1.2692    1.4382   -0.6447 N   0  0  0  0  0  0  0  0  0  0  0  0
   -1.8964    2.1895   -1.6200 C   0  0  0  0  0  0  0  0  0  0  0  0
   -3.0960    1.9956   -2.0648 N   0  0  0  0  0  0  0  0  0  0  0  0
   -3.7306    0.9303   -1.5148 C   0  0  0  0  0  0  0  0  0  0  0  0
   -5.3118    0.5135   -1.9724 S   0  0  0  0  0  0  0  0  0  0  0  0
   -5.3643   -0.8111   -0.8826 C   0  0  0  0  0  0  0  0  0  0  0  0
   -6.6082   -1.5583   -0.7975 C   0  0  0  0  0  0  0  0  0  0  0  0
   -6.9320   -2.0293    0.4475 N   0  0  0  0  0  0  0  0  0  0  0  0
   -7.3928   -1.7527   -1.7221 O   0  0  0  0  0  0  0  0  0  0  0  0
   -4.1520   -0.9858   -0.2187 C   0  0  0  0  0  0  0  0  0  0  0  0
   -3.8202   -2.1052    0.7190 C   0  0  0  0  0  0  0  0  0  0  0  0
   -3.2263    0.0666   -0.5684 C   0  0  0  0  0  0  0  0  0  0  0  0
   -1.8774    0.3200   -0.0816 C   0  0  0  0  0  0  0  0  0  0  0  0
   -1.3334   -0.3855    0.7650 O   0  0  0  0  0  0  0  0  0  0  0  0
    3.0478    1.2393    0.5067 C   0  0  0  0  0  0  0  0  0  0  0  0
    2.5748    2.4905    0.8020 O   0  0  0  0  0  0  0  0  0  0  0  0
    3.3434    3.2927    1.6935 C   0  0  0  0  0  0  0  0  0  0  0  0
    4.2108    0.6870    1.0588 C   0  0  0  0  0  0  0  0  0  0  0  0
    6.5944   -2.3119   -0.1005 H   0  0  0  0  0  0  0  0  0  0  0  0
    7.2322   -2.4351    1.5438 H   0  0  0  0  0  0  0  0  0  0  0  0
    5.6096   -3.0576    1.2188 H   0  0  0  0  0  0  0  0  0  0  0  0
    4.2715   -2.2983   -0.5967 H   0  0  0  0  0  0  0  0  0  0  0  0
    2.2372   -1.3586   -1.5637 H   0  0  0  0  0  0  0  0  0  0  0  0
    0.1966    1.5366    0.8349 H   0  0  0  0  0  0  0  0  0  0  0  0
    0.2726    2.8365   -0.3963 H   0  0  0  0  0  0  0  0  0  0  0  0
   -1.2913    3.0202   -2.0181 H   0  0  0  0  0  0  0  0  0  0  0  0
   -7.8687   -2.3992    0.5381 H   0  0  0  0  0  0  0  0  0  0  0  0
   -6.4926   -1.6459    1.2713 H   0  0  0  0  0  0  0  0  0  0  0  0
   -4.4556   -2.9794    0.5494 H   0  0  0  0  0  0  0  0  0  0  0  0
   -2.7896   -2.4448    0.5770 H   0  0  0  0  0  0  0  0  0  0  0  0
   -3.9425   -1.7787    1.7563 H   0  0  0  0  0  0  0  0  0  0  0  0
    4.3446    3.4814    1.2924 H   0  0  0  0  0  0  0  0  0  0  0  0
    2.8372    4.2578    1.7919 H   0  0  0  0  0  0  0  0  0  0  0  0
    3.3906    2.8391    2.6888 H   0  0  0  0  0  0  0  0  0  0  0  0
    4.8036    1.2246    1.7928 H   0  0  0  0  0  0  0  0  0  0  0  0
  1  2  1  0
  2  3  1  0
  3  4  2  0
  4  5  1  0
  5  6  2  0
  6  7  1  0
  7  8  2  0
  7  9  1  0
  9 10  1  0
 10 11  1  0
 11 12  2  0
 12 13  1  0
 13 14  1  0
 14 15  1  0
 15 16  1  0
 16 17  1  0
 16 18  2  0
 15 19  2  0
 19 20  1  0
 19 21  1  0
 21 22  1  0
 22 23  2  0
  6 24  1  0
 24 25  1  0
 25 26  1  0
 24 27  2  0
 27  3  1  0
 22 10  1  0
 21 13  2  0
  1 28  1  0
  1 29  1  0
  1 30  1  0
  4 31  1  0
  5 32  1  0
  9 33  1  0
  9 34  1  0
 11 35  1  0
 17 36  1  0
 17 37  1  0
 20 38  1  0
 20 39  1  0
 20 40  1  0
 26 41  1  0
 26 42  1  0
 26 43  1  0
 27 44  1  0
M  END
$$$$
