
     RDKit          3D

 51 52  0  0  0  0  0  0  0  0999 V2000
   -4.0750    3.8246   -0.5617 C   0  0  0  0  0  0  0  0  0  0  0  0
   -3.8272    2.3668   -0.3181 C   0  0  0  0  0  0  0  0  0  0  0  0
   -4.6410    1.6376    0.5530 C   0  0  0  0  0  0  0  0  0  0  0  0
   -4.4335    0.2675    0.7400 C   0  0  0  0  0  0  0  0  0  0  0  0
   -3.4057   -0.4110    0.0641 C   0  0  0  0  0  0  0  0  0  0  0  0
   -3.1985   -1.9043    0.2632 C   0  0  0  0  0  0  0  0  0  0  0  0
   -2.9235   -2.2488    1.7303 C   0  0  0  0  0  0  0  0  0  0  0  0
   -4.3900   -2.7061   -0.2734 C   0  0  0  0  0  0  0  0  0  0  0  0
   -2.5905    0.3348   -0.8001 C   0  0  0  0  0  0  0  0  0  0  0  0
   -1.5988   -0.2908   -1.5127 O   0  0  0  0  0  0  0  0  0  0  0  0
   -0.3168   -0.0015   -0.9372 C   0  0  0  0  0  0  0  0  0  0  0  0
    0.6927   -1.0002   -1.5054 C   0  0  0  0  0  0  0  0  0  0  0  0
    2.0583   -0.7455   -1.0786 N   0  0  0  0  0  0  0  0  0  0  0  0
    2.4833   -1.0883    0.1845 C   0  0  0  0  0  0  0  0  0  0  0  0
    1.7454   -1.6254    1.0064 O   0  0  0  0  0  0  0  0  0  0  0  0
    3.9342   -0.7740    0.5314 C   0  0  0  0  0  0  0  0  0  0  0  0
    4.8830   -1.4041   -0.4721 C   0  0  0  0  0  0  0  0  0  0  0  0
    5.1808   -0.2609   -1.3946 C   0  0  0  0  0  0  0  0  0  0  0  0
    5.7062   -0.3554   -2.4913 O   0  0  0  0  0  0  0  0  0  0  0  0
    4.7548    0.9185   -0.8512 O   0  0  0  0  0  0  0  0  0  0  0  0
    4.3157    0.7003    0.4987 C   0  0  0  0  0  0  0  0  0  0  0  0
    5.5035    0.9887    1.4325 C   0  0  0  0  0  0  0  0  0  0  0  0
    3.1889    1.6794    0.8248 C   0  0  0  0  0  0  0  0  0  0  0  0
   -2.8090    1.7007   -1.0078 C   0  0  0  0  0  0  0  0  0  0  0  0
   -4.6372    3.9580   -1.4924 H   0  0  0  0  0  0  0  0  0  0  0  0
   -3.1276    4.3697   -0.6353 H   0  0  0  0  0  0  0  0  0  0  0  0
   -4.6467    4.2716    0.2589 H   0  0  0  0  0  0  0  0  0  0  0  0
   -5.4514    2.1267    1.0877 H   0  0  0  0  0  0  0  0  0  0  0  0
   -5.0952   -0.2706    1.4162 H   0  0  0  0  0  0  0  0  0  0  0  0
   -2.3158   -2.2308   -0.3028 H   0  0  0  0  0  0  0  0  0  0  0  0
   -2.6762   -3.3109    1.8320 H   0  0  0  0  0  0  0  0  0  0  0  0
   -3.7897   -2.0491    2.3710 H   0  0  0  0  0  0  0  0  0  0  0  0
   -2.0795   -1.6678    2.1190 H   0  0  0  0  0  0  0  0  0  0  0  0
   -5.3210   -2.4664    0.2550 H   0  0  0  0  0  0  0  0  0  0  0  0
   -4.5494   -2.4999   -1.3387 H   0  0  0  0  0  0  0  0  0  0  0  0
   -4.2130   -3.7812   -0.1644 H   0  0  0  0  0  0  0  0  0  0  0  0
   -0.3461   -0.0821    0.1568 H   0  0  0  0  0  0  0  0  0  0  0  0
   -0.0150    1.0172   -1.2063 H   0  0  0  0  0  0  0  0  0  0  0  0
    0.6807   -0.9727   -2.6004 H   0  0  0  0  0  0  0  0  0  0  0  0
    0.4103   -2.0178   -1.2096 H   0  0  0  0  0  0  0  0  0  0  0  0
    2.6138   -0.1285   -1.6597 H   0  0  0  0  0  0  0  0  0  0  0  0
    4.0986   -1.2046    1.5278 H   0  0  0  0  0  0  0  0  0  0  0  0
    4.4389   -2.2360   -1.0246 H   0  0  0  0  0  0  0  0  0  0  0  0
    5.8160   -1.7219    0.0015 H   0  0  0  0  0  0  0  0  0  0  0  0
    5.2292    0.8423    2.4831 H   0  0  0  0  0  0  0  0  0  0  0  0
    5.8552    2.0183    1.3047 H   0  0  0  0  0  0  0  0  0  0  0  0
    6.3635    0.3463    1.2094 H   0  0  0  0  0  0  0  0  0  0  0  0
    3.5624    2.7098    0.8331 H   0  0  0  0  0  0  0  0  0  0  0  0
    2.7468    1.4709    1.8041 H   0  0  0  0  0  0  0  0  0  0  0  0
    2.4000    1.6661    0.0679 H   0  0  0  0  0  0  0  0  0  0  0  0
   -2.1888    2.2408   -1.7185 H   0  0  0  0  0  0  0  0  0  0  0  0
  1  2  1  0
  2  3  2  0
  3  4  1  0
  4  5  2  0
  5  6  1  0
  6  7  1  0
  6  8  1  0
  5  9  1  0
  9 10  1  0
 10 11  1  0
 11 12  1  0
 12 13  1  0
 13 14  1  0
 14 15  2  0
 14 16  1  0
 16 17  1  0
 17 18  1  0
 18 19  2  0
 18 20  1  0
 20 21  1  0
 21 22  1  0
 21 23  1  0
  9 24  2  0
 24  2  1  0
 21 16  1  0
  1 25  1  0
  1 26  1  0
  1 27  1  0
  3 28  1  0
  4 29  1  0
  6 30  1  0
  7 31  1  0
  7 32  1  0
  7 33  1  0
  8 34  1  0
  8 35  1  0
  8 36  1  0
 11 37  1  0
 11 38  1  0
 12 39  1  0
 12 40  1  0
 13 41  1  0
 16 42  1  0
 17 43  1  0
 17 44  1  0
 22 45  1  0
 22 46  1  0
 22 47  1  0
 23 48  1  0
 23 49  1  0
 23 50  1  0
 24 51  1  0
M  END
$$$$
