
     RDKit          3D

 45 46  0  0  0  0  0  0  0  0999 V2000
    6.7817    0.0104    0.6336 C   0  0  0  0  0  0  0  0  0  0  0  0
    5.9331    0.6228   -0.3828 N   0  0  0  0  0  0  0  0  0  0  0  0
    5.9633   -0.1448   -1.6259 C   0  0  0  0  0  0  0  0  0  0  0  0
    4.5568    0.8636    0.0853 C   0  0  0  0  0  0  0  0  0  0  0  0
    3.7329   -0.3625    0.5295 C   0  0  0  0  0  0  0  0  0  0  0  0
    2.4063    0.0067    0.9934 N   0  0  0  0  0  0  0  0  0  0  0  0
    1.3833    0.2591    0.1047 C   0  0  0  0  0  0  0  0  0  0  0  0
    1.5112    0.2155   -1.1128 O   0  0  0  0  0  0  0  0  0  0  0  0
    0.0618    0.5745    0.7031 C   0  0  0  0  0  0  0  0  0  0  0  0
   -0.0492    1.3105    1.8902 C   0  0  0  0  0  0  0  0  0  0  0  0
   -1.3101    1.5914    2.4184 C   0  0  0  0  0  0  0  0  0  0  0  0
   -2.4564    1.1489    1.7570 C   0  0  0  0  0  0  0  0  0  0  0  0
   -2.3466    0.4379    0.5601 C   0  0  0  0  0  0  0  0  0  0  0  0
   -3.5548   -0.0163   -0.0711 N   0  0  0  0  0  0  0  0  0  0  0  0
   -3.7983    0.4857   -1.4491 C   0  0  0  0  0  0  0  0  0  0  0  0
   -5.0760   -0.0986   -2.0600 C   0  0  0  0  0  0  0  0  0  0  0  0
   -6.1103   -0.4714   -1.0037 C   0  0  0  0  0  0  0  0  0  0  0  0
   -5.6674   -1.6698   -0.1711 C   0  0  0  0  0  0  0  0  0  0  0  0
   -3.9189   -1.6562    0.2069 S   0  0  0  0  0  6  0  0  0  0  0  0
   -3.7667   -1.9426    1.6183 O   0  0  0  0  0  0  0  0  0  0  0  0
   -3.2253   -2.4372   -0.7969 O   0  0  0  0  0  0  0  0  0  0  0  0
   -1.0886    0.1419    0.0344 C   0  0  0  0  0  0  0  0  0  0  0  0
    6.4853   -1.0177    0.8681 H   0  0  0  0  0  0  0  0  0  0  0  0
    7.8242   -0.0086    0.2965 H   0  0  0  0  0  0  0  0  0  0  0  0
    6.7633    0.5966    1.5589 H   0  0  0  0  0  0  0  0  0  0  0  0
    6.9842   -0.1850   -2.0223 H   0  0  0  0  0  0  0  0  0  0  0  0
    5.6118   -1.1738   -1.4944 H   0  0  0  0  0  0  0  0  0  0  0  0
    5.3490    0.3363   -2.3950 H   0  0  0  0  0  0  0  0  0  0  0  0
    4.0118    1.4022   -0.7010 H   0  0  0  0  0  0  0  0  0  0  0  0
    4.6006    1.5735    0.9225 H   0  0  0  0  0  0  0  0  0  0  0  0
    3.6215   -1.0772   -0.2926 H   0  0  0  0  0  0  0  0  0  0  0  0
    4.2194   -0.8751    1.3652 H   0  0  0  0  0  0  0  0  0  0  0  0
    2.1985   -0.0952    1.9776 H   0  0  0  0  0  0  0  0  0  0  0  0
    0.8335    1.6869    2.3998 H   0  0  0  0  0  0  0  0  0  0  0  0
   -1.4024    2.1552    3.3435 H   0  0  0  0  0  0  0  0  0  0  0  0
   -3.4367    1.3568    2.1779 H   0  0  0  0  0  0  0  0  0  0  0  0
   -2.9487    0.2847   -2.1104 H   0  0  0  0  0  0  0  0  0  0  0  0
   -3.9149    1.5753   -1.3870 H   0  0  0  0  0  0  0  0  0  0  0  0
   -4.8279   -0.9862   -2.6555 H   0  0  0  0  0  0  0  0  0  0  0  0
   -5.5006    0.6294   -2.7612 H   0  0  0  0  0  0  0  0  0  0  0  0
   -6.2899    0.3903   -0.3486 H   0  0  0  0  0  0  0  0  0  0  0  0
   -7.0686   -0.7040   -1.4819 H   0  0  0  0  0  0  0  0  0  0  0  0
   -6.2195   -1.6933    0.7733 H   0  0  0  0  0  0  0  0  0  0  0  0
   -5.8628   -2.6037   -0.7084 H   0  0  0  0  0  0  0  0  0  0  0  0
   -0.9931   -0.4367   -0.8816 H   0  0  0  0  0  0  0  0  0  0  0  0
  1  2  1  0
  2  3  1  0
  2  4  1  0
  4  5  1  0
  5  6  1  0
  6  7  1  0
  7  8  2  0
  7  9  1  0
  9 10  2  0
 10 11  1  0
 11 12  2  0
 12 13  1  0
 13 14  1  0
 14 15  1  0
 15 16  1  0
 16 17  1  0
 17 18  1  0
 18 19  1  0
 19 20  2  0
 19 21  2  0
 13 22  2  0
 22  9  1  0
 19 14  1  0
  1 23  1  0
  1 24  1  0
  1 25  1  0
  3 26  1  0
  3 27  1  0
  3 28  1  0
  4 29  1  0
  4 30  1  0
  5 31  1  0
  5 32  1  0
  6 33  1  0
 10 34  1  0
 11 35  1  0
 12 36  1  0
 15 37  1  0
 15 38  1  0
 16 39  1  0
 16 40  1  0
 17 41  1  0
 17 42  1  0
 18 43  1  0
 18 44  1  0
 22 45  1  0
M  END
$$$$
