
     RDKit          3D

 41 44  0  0  0  0  0  0  0  0999 V2000
   -1.0873   -2.4045   -2.0478 O   0  0  0  0  0  0  0  0  0  0  0  0
   -1.2858   -2.2358   -0.8457 C   0  0  0  0  0  0  0  0  0  0  0  0
   -0.5774   -3.1387    0.1250 C   0  0  0  0  0  0  0  0  0  0  0  0
   -0.1007   -2.3564    1.3225 C   0  0  0  0  0  0  0  0  0  0  0  0
    0.8484   -1.2009    0.9576 C   0  0  0  0  0  0  0  0  0  0  0  0
    0.5686   -0.0278    1.1812 O   0  0  0  0  0  0  0  0  0  0  0  0
    2.0360   -1.6481    0.3902 N   0  0  0  0  0  0  0  0  0  0  0  0
    3.1086   -0.8599   -0.0857 C   0  0  0  0  0  0  0  0  0  0  0  0
    4.2295   -1.5567   -0.5944 C   0  0  0  0  0  0  0  0  0  0  0  0
    5.3456   -0.8742   -1.0923 C   0  0  0  0  0  0  0  0  0  0  0  0
    5.3132    0.5005   -1.0713 C   0  0  0  0  0  0  0  0  0  0  0  0
    4.2284    1.1863   -0.5818 C   0  0  0  0  0  0  0  0  0  0  0  0
    3.1136    0.5387   -0.0843 C   0  0  0  0  0  0  0  0  0  0  0  0
    4.3962    2.5350   -0.6523 O   0  0  0  0  0  0  0  0  0  0  0  0
    5.7057    2.6166   -1.2502 C   0  0  0  0  0  0  0  0  0  0  0  0
    6.2985    1.3269   -1.5107 O   0  0  0  0  0  0  0  0  0  0  0  0
   -1.5762   -1.7898    2.1943 S   0  0  0  0  0  0  0  0  0  0  0  0
   -2.3779   -0.9972    0.8416 C   0  0  0  0  0  0  0  0  0  0  0  0
   -3.2563   -0.0603    1.3142 N   0  0  0  0  0  0  0  0  0  0  0  0
   -4.0658    0.8625    0.6304 C   0  0  0  0  0  0  0  0  0  0  0  0
   -4.8897    1.7132    1.3897 C   0  0  0  0  0  0  0  0  0  0  0  0
   -5.7432    2.6389    0.7814 C   0  0  0  0  0  0  0  0  0  0  0  0
   -5.7959    2.7267   -0.6049 C   0  0  0  0  0  0  0  0  0  0  0  0
   -4.9986    1.8873   -1.3762 C   0  0  0  0  0  0  0  0  0  0  0  0
   -4.1460    0.9617   -0.7622 C   0  0  0  0  0  0  0  0  0  0  0  0
   -2.1690   -1.2995   -0.3934 N   0  0  0  0  0  0  0  0  0  0  0  0
    0.2722   -3.5953   -0.3965 H   0  0  0  0  0  0  0  0  0  0  0  0
   -1.2533   -3.9573    0.4010 H   0  0  0  0  0  0  0  0  0  0  0  0
    0.4420   -3.0185    2.0070 H   0  0  0  0  0  0  0  0  0  0  0  0
    2.1762   -2.6480    0.3181 H   0  0  0  0  0  0  0  0  0  0  0  0
    4.2462   -2.6439   -0.6110 H   0  0  0  0  0  0  0  0  0  0  0  0
    6.2051   -1.4065   -1.4836 H   0  0  0  0  0  0  0  0  0  0  0  0
    2.2872    1.1347    0.2818 H   0  0  0  0  0  0  0  0  0  0  0  0
    6.3650    3.1751   -0.5758 H   0  0  0  0  0  0  0  0  0  0  0  0
    5.6262    3.1636   -2.1968 H   0  0  0  0  0  0  0  0  0  0  0  0
   -3.2127    0.0786    2.3149 H   0  0  0  0  0  0  0  0  0  0  0  0
   -4.8754    1.6647    2.4760 H   0  0  0  0  0  0  0  0  0  0  0  0
   -6.3653    3.2878    1.3919 H   0  0  0  0  0  0  0  0  0  0  0  0
   -6.4562    3.4441   -1.0843 H   0  0  0  0  0  0  0  0  0  0  0  0
   -5.0340    1.9463   -2.4611 H   0  0  0  0  0  0  0  0  0  0  0  0
   -3.5454    0.3300   -1.4097 H   0  0  0  0  0  0  0  0  0  0  0  0
  1  2  2  0
  2  3  1  0
  3  4  1  0
  4  5  1  0
  5  6  2  0
  5  7  1  0
  7  8  1  0
  8  9  2  0
  9 10  1  0
 10 11  2  0
 11 12  1  0
 12 13  2  0
 12 14  1  0
 14 15  1  0
 15 16  1  0
  4 17  1  0
 17 18  1  0
 18 19  1  0
 19 20  1  0
 20 21  2  0
 21 22  1  0
 22 23  2  0
 23 24  1  0
 24 25  2  0
 18 26  2  0
 26  2  1  0
 13  8  1  0
 25 20  1  0
 16 11  1  0
  3 27  1  0
  3 28  1  0
  4 29  1  0
  7 30  1  0
  9 31  1  0
 10 32  1  0
 13 33  1  0
 15 34  1  0
 15 35  1  0
 19 36  1  0
 21 37  1  0
 22 38  1  0
 23 39  1  0
 24 40  1  0
 25 41  1  0
M  END
$$$$
