
     RDKit          3D

 39 41  0  0  0  0  0  0  0  0999 V2000
   -3.0349    2.9516   -0.2597 C   0  0  0  0  0  0  0  0  0  0  0  0
   -2.6470    1.9761    0.7093 O   0  0  0  0  0  0  0  0  0  0  0  0
   -2.1982    0.8031    0.1582 C   0  0  0  0  0  0  0  0  0  0  0  0
   -1.0085    0.3126    0.6978 C   0  0  0  0  0  0  0  0  0  0  0  0
   -0.4512   -0.8680    0.1965 C   0  0  0  0  0  0  0  0  0  0  0  0
    0.8392   -1.4088    0.7124 C   0  0  0  0  0  0  0  0  0  0  0  0
    0.9711   -2.6253    0.7623 O   0  0  0  0  0  0  0  0  0  0  0  0
    1.7802   -0.4533    1.0328 N   0  0  0  0  0  0  0  0  0  0  0  0
    3.0594   -0.7370    1.4917 C   0  0  0  0  0  0  0  0  0  0  0  0
    3.5394   -1.9574    1.7534 N   0  0  0  0  0  0  0  0  0  0  0  0
    4.8485   -1.7817    2.1688 O   0  0  0  0  0  0  0  0  0  0  0  0
    5.1574   -0.4582    2.1637 C   0  0  0  0  0  0  0  0  0  0  0  0
    6.3596    0.0378    2.5148 N   0  0  0  0  0  0  0  0  0  0  0  0
    6.4202    1.3840    2.4320 C   0  0  0  0  0  0  0  0  0  0  0  0
    5.3838    2.2188    2.0315 C   0  0  0  0  0  0  0  0  0  0  0  0
    4.1572    1.6576    1.6729 C   0  0  0  0  0  0  0  0  0  0  0  0
    4.0453    0.2585    1.7444 C   0  0  0  0  0  0  0  0  0  0  0  0
   -1.1050   -1.5819   -0.8201 C   0  0  0  0  0  0  0  0  0  0  0  0
   -2.3149   -1.1191   -1.3444 C   0  0  0  0  0  0  0  0  0  0  0  0
   -3.0289   -1.7434   -2.3361 O   0  0  0  0  0  0  0  0  0  0  0  0
   -2.4861   -2.9371   -2.8878 C   0  0  0  0  0  0  0  0  0  0  0  0
   -2.8701    0.0688   -0.8325 C   0  0  0  0  0  0  0  0  0  0  0  0
   -4.0720    0.5168   -1.3287 O   0  0  0  0  0  0  0  0  0  0  0  0
   -5.1472   -0.0747   -0.5972 C   0  0  0  0  0  0  0  0  0  0  0  0
   -4.0921    2.8431   -0.5207 H   0  0  0  0  0  0  0  0  0  0  0  0
   -2.4036    2.9226   -1.1555 H   0  0  0  0  0  0  0  0  0  0  0  0
   -2.9043    3.9386    0.1990 H   0  0  0  0  0  0  0  0  0  0  0  0
   -0.5386    0.8603    1.5116 H   0  0  0  0  0  0  0  0  0  0  0  0
    1.5813    0.5193    0.8537 H   0  0  0  0  0  0  0  0  0  0  0  0
    7.3809    1.8066    2.7126 H   0  0  0  0  0  0  0  0  0  0  0  0
    5.5312    3.2942    1.9989 H   0  0  0  0  0  0  0  0  0  0  0  0
    3.3320    2.2859    1.3540 H   0  0  0  0  0  0  0  0  0  0  0  0
   -0.6444   -2.4991   -1.1779 H   0  0  0  0  0  0  0  0  0  0  0  0
   -1.5161   -2.7453   -3.3635 H   0  0  0  0  0  0  0  0  0  0  0  0
   -3.1737   -3.2916   -3.6633 H   0  0  0  0  0  0  0  0  0  0  0  0
   -2.4107   -3.7231   -2.1278 H   0  0  0  0  0  0  0  0  0  0  0  0
   -5.1359   -1.1688   -0.6686 H   0  0  0  0  0  0  0  0  0  0  0  0
   -6.0841    0.2845   -1.0323 H   0  0  0  0  0  0  0  0  0  0  0  0
   -5.1191    0.2330    0.4551 H   0  0  0  0  0  0  0  0  0  0  0  0
  1  2  1  0
  2  3  1  0
  3  4  2  0
  4  5  1  0
  5  6  1  0
  6  7  2  0
  6  8  1  0
  8  9  1  0
  9 10  2  0
 10 11  1  0
 11 12  1  0
 12 13  2  0
 13 14  1  0
 14 15  2  0
 15 16  1  0
 16 17  2  0
  5 18  2  0
 18 19  1  0
 19 20  1  0
 20 21  1  0
 19 22  2  0
 22 23  1  0
 23 24  1  0
 22  3  1  0
 17  9  1  0
 17 12  1  0
  1 25  1  0
  1 26  1  0
  1 27  1  0
  4 28  1  0
  8 29  1  0
 14 30  1  0
 15 31  1  0
 16 32  1  0
 18 33  1  0
 21 34  1  0
 21 35  1  0
 21 36  1  0
 24 37  1  0
 24 38  1  0
 24 39  1  0
M  END
$$$$
