
     RDKit          3D

 53 55  0  0  0  0  0  0  0  0999 V2000
   -5.7189    2.6853    1.2960 C   0  0  0  0  0  0  0  0  0  0  0  0
   -6.0474    1.5656    0.4875 O   0  0  0  0  0  0  0  0  0  0  0  0
   -5.0395    0.6946    0.1636 C   0  0  0  0  0  0  0  0  0  0  0  0
   -3.7142    0.8068    0.5923 C   0  0  0  0  0  0  0  0  0  0  0  0
   -2.7498   -0.1349    0.2006 C   0  0  0  0  0  0  0  0  0  0  0  0
   -1.4355    0.0551    0.6845 N   0  0  0  0  0  0  0  0  0  0  0  0
   -0.3026   -0.6596    0.3402 C   0  0  0  0  0  0  0  0  0  0  0  0
   -0.2076   -1.5400   -0.5055 O   0  0  0  0  0  0  0  0  0  0  0  0
    0.9258   -0.2519    1.0698 C   0  0  0  0  0  0  0  0  0  0  0  0
    0.9027    0.0039    2.4469 C   0  0  0  0  0  0  0  0  0  0  0  0
    2.0798    0.3652    3.1027 C   0  0  0  0  0  0  0  0  0  0  0  0
    3.2730    0.4764    2.3856 C   0  0  0  0  0  0  0  0  0  0  0  0
    3.2907    0.2431    1.0068 C   0  0  0  0  0  0  0  0  0  0  0  0
    4.5098    0.2698    0.2473 N   0  0  0  0  0  0  0  0  0  0  0  0
    5.2636   -1.0099    0.2062 C   0  0  0  0  0  0  0  0  0  0  0  0
    6.5650   -0.8882   -0.5924 C   0  0  0  0  0  0  0  0  0  0  0  0
    6.4709    0.1576   -1.6991 C   0  0  0  0  0  0  0  0  0  0  0  0
    6.3929    1.5757   -1.1440 C   0  0  0  0  0  0  0  0  0  0  0  0
    5.4311    1.6914    0.3591 S   0  0  0  0  0  6  0  0  0  0  0  0
    4.5498    2.8343    0.2428 O   0  0  0  0  0  0  0  0  0  0  0  0
    6.3257    1.5507    1.4909 O   0  0  0  0  0  0  0  0  0  0  0  0
    2.1246   -0.1584    0.3559 C   0  0  0  0  0  0  0  0  0  0  0  0
   -3.1248   -1.2063   -0.6169 C   0  0  0  0  0  0  0  0  0  0  0  0
   -4.4469   -1.3446   -1.0516 C   0  0  0  0  0  0  0  0  0  0  0  0
   -4.9089   -2.3643   -1.8453 O   0  0  0  0  0  0  0  0  0  0  0  0
   -3.9885   -3.3899   -2.1957 C   0  0  0  0  0  0  0  0  0  0  0  0
   -5.3923   -0.3798   -0.6680 C   0  0  0  0  0  0  0  0  0  0  0  0
   -6.7065   -0.5266   -1.0558 O   0  0  0  0  0  0  0  0  0  0  0  0
   -6.9158    0.1230   -2.3086 C   0  0  0  0  0  0  0  0  0  0  0  0
   -4.9813    3.3269    0.8022 H   0  0  0  0  0  0  0  0  0  0  0  0
   -5.3699    2.3708    2.2850 H   0  0  0  0  0  0  0  0  0  0  0  0
   -6.6301    3.2744    1.4367 H   0  0  0  0  0  0  0  0  0  0  0  0
   -3.4135    1.6286    1.2325 H   0  0  0  0  0  0  0  0  0  0  0  0
   -1.2987    0.8538    1.2915 H   0  0  0  0  0  0  0  0  0  0  0  0
   -0.0125   -0.1093    3.0225 H   0  0  0  0  0  0  0  0  0  0  0  0
    2.0755    0.5495    4.1747 H   0  0  0  0  0  0  0  0  0  0  0  0
    4.1850    0.7438    2.9148 H   0  0  0  0  0  0  0  0  0  0  0  0
    5.4737   -1.3768    1.2175 H   0  0  0  0  0  0  0  0  0  0  0  0
    4.6307   -1.7570   -0.2893 H   0  0  0  0  0  0  0  0  0  0  0  0
    7.3929   -0.6335    0.0814 H   0  0  0  0  0  0  0  0  0  0  0  0
    6.8117   -1.8664   -1.0209 H   0  0  0  0  0  0  0  0  0  0  0  0
    5.5881   -0.0465   -2.3180 H   0  0  0  0  0  0  0  0  0  0  0  0
    7.3408    0.0831   -2.3620 H   0  0  0  0  0  0  0  0  0  0  0  0
    7.3936    1.9515   -0.9042 H   0  0  0  0  0  0  0  0  0  0  0  0
    5.9449    2.2434   -1.8857 H   0  0  0  0  0  0  0  0  0  0  0  0
    2.1418   -0.3797   -0.7085 H   0  0  0  0  0  0  0  0  0  0  0  0
   -2.3854   -1.9421   -0.9065 H   0  0  0  0  0  0  0  0  0  0  0  0
   -3.6045   -3.8992   -1.3054 H   0  0  0  0  0  0  0  0  0  0  0  0
   -3.1735   -2.9941   -2.8112 H   0  0  0  0  0  0  0  0  0  0  0  0
   -4.5265   -4.1309   -2.7948 H   0  0  0  0  0  0  0  0  0  0  0  0
   -7.9676   -0.0061   -2.5799 H   0  0  0  0  0  0  0  0  0  0  0  0
   -6.3063   -0.3260   -3.1000 H   0  0  0  0  0  0  0  0  0  0  0  0
   -6.7149    1.1979   -2.2395 H   0  0  0  0  0  0  0  0  0  0  0  0
  1  2  1  0
  2  3  1  0
  3  4  2  0
  4  5  1  0
  5  6  1  0
  6  7  1  0
  7  8  2  0
  7  9  1  0
  9 10  2  0
 10 11  1  0
 11 12  2  0
 12 13  1  0
 13 14  1  0
 14 15  1  0
 15 16  1  0
 16 17  1  0
 17 18  1  0
 18 19  1  0
 19 20  2  0
 19 21  2  0
 13 22  2  0
  5 23  2  0
 23 24  1  0
 24 25  1  0
 25 26  1  0
 24 27  2  0
 27 28  1  0
 28 29  1  0
 27  3  1  0
 22  9  1  0
 19 14  1  0
  1 30  1  0
  1 31  1  0
  1 32  1  0
  4 33  1  0
  6 34  1  0
 10 35  1  0
 11 36  1  0
 12 37  1  0
 15 38  1  0
 15 39  1  0
 16 40  1  0
 16 41  1  0
 17 42  1  0
 17 43  1  0
 18 44  1  0
 18 45  1  0
 22 46  1  0
 23 47  1  0
 26 48  1  0
 26 49  1  0
 26 50  1  0
 29 51  1  0
 29 52  1  0
 29 53  1  0
M  END
$$$$
