
     RDKit          3D

 50 52  0  0  0  0  0  0  0  0999 V2000
   -4.8877   -2.0302   -2.6006 C   0  0  0  0  0  0  0  0  0  0  0  0
   -5.6671   -1.7912   -1.3195 C   0  0  0  0  0  0  0  0  0  0  0  0
   -5.7977   -0.3947   -1.0664 O   0  0  0  0  0  0  0  0  0  0  0  0
   -4.8907    0.2304   -0.2480 C   0  0  0  0  0  0  0  0  0  0  0  0
   -3.6667   -0.3221    0.1483 C   0  0  0  0  0  0  0  0  0  0  0  0
   -2.7871    0.3915    0.9778 C   0  0  0  0  0  0  0  0  0  0  0  0
   -1.5156   -0.1891    1.3899 C   0  0  0  0  0  0  0  0  0  0  0  0
   -0.5939    0.4907    2.1577 N   0  0  0  0  0  0  0  0  0  0  0  0
    0.4305   -0.3267    2.3487 N   0  0  0  0  0  0  0  0  0  0  0  0
    0.0976   -1.4473    1.6825 N   0  0  0  0  0  0  0  0  0  0  0  0
    0.9729   -2.5925    1.6665 C   0  0  0  0  0  0  0  0  0  0  0  0
    2.1645   -2.3851    0.7581 C   0  0  0  0  0  0  0  0  0  0  0  0
    2.4777   -3.2636   -0.0434 O   0  0  0  0  0  0  0  0  0  0  0  0
    2.8690   -1.2105    0.9815 N   0  0  0  0  0  0  0  0  0  0  0  0
    4.0413   -0.7708    0.3322 C   0  0  0  0  0  0  0  0  0  0  0  0
    4.5288    0.4937    0.6890 C   0  0  0  0  0  0  0  0  0  0  0  0
    5.6881    1.0130    0.0984 C   0  0  0  0  0  0  0  0  0  0  0  0
    6.3793    0.2685   -0.8612 C   0  0  0  0  0  0  0  0  0  0  0  0
    7.6194    0.7720   -1.5241 C   0  0  0  0  0  0  0  0  0  0  0  0
    8.1571    2.1241   -1.1346 C   0  0  0  0  0  0  0  0  0  0  0  0
    8.1835    0.0855   -2.3733 O   0  0  0  0  0  0  0  0  0  0  0  0
    5.8942   -0.9948   -1.2180 C   0  0  0  0  0  0  0  0  0  0  0  0
    4.7341   -1.5103   -0.6256 C   0  0  0  0  0  0  0  0  0  0  0  0
   -1.1019   -1.4313    1.0786 N   0  0  0  0  0  0  0  0  0  0  0  0
   -3.1493    1.6751    1.4015 C   0  0  0  0  0  0  0  0  0  0  0  0
   -4.3648    2.2406    1.0039 C   0  0  0  0  0  0  0  0  0  0  0  0
   -5.2388    1.5285    0.1775 C   0  0  0  0  0  0  0  0  0  0  0  0
   -6.4505    2.0025   -0.2606 O   0  0  0  0  0  0  0  0  0  0  0  0
   -6.8133    3.3260    0.1047 C   0  0  0  0  0  0  0  0  0  0  0  0
   -3.8679   -1.6412   -2.5280 H   0  0  0  0  0  0  0  0  0  0  0  0
   -5.3639   -1.5120   -3.4398 H   0  0  0  0  0  0  0  0  0  0  0  0
   -4.8384   -3.0985   -2.8304 H   0  0  0  0  0  0  0  0  0  0  0  0
   -6.6836   -2.1774   -1.4568 H   0  0  0  0  0  0  0  0  0  0  0  0
   -5.2518   -2.3409   -0.4675 H   0  0  0  0  0  0  0  0  0  0  0  0
   -3.3667   -1.3088   -0.1905 H   0  0  0  0  0  0  0  0  0  0  0  0
    1.3154   -2.7802    2.6890 H   0  0  0  0  0  0  0  0  0  0  0  0
    0.3949   -3.4569    1.3238 H   0  0  0  0  0  0  0  0  0  0  0  0
    2.4714   -0.5522    1.6499 H   0  0  0  0  0  0  0  0  0  0  0  0
    4.0114    1.0985    1.4310 H   0  0  0  0  0  0  0  0  0  0  0  0
    6.0239    1.9988    0.4062 H   0  0  0  0  0  0  0  0  0  0  0  0
    8.4048    2.1421   -0.0702 H   0  0  0  0  0  0  0  0  0  0  0  0
    7.4327    2.9046   -1.3809 H   0  0  0  0  0  0  0  0  0  0  0  0
    9.0744    2.3217   -1.6978 H   0  0  0  0  0  0  0  0  0  0  0  0
    6.4162   -1.5932   -1.9638 H   0  0  0  0  0  0  0  0  0  0  0  0
    4.4062   -2.4961   -0.9409 H   0  0  0  0  0  0  0  0  0  0  0  0
   -2.4885    2.2532    2.0453 H   0  0  0  0  0  0  0  0  0  0  0  0
   -4.5987    3.2388    1.3591 H   0  0  0  0  0  0  0  0  0  0  0  0
   -6.9253    3.4187    1.1900 H   0  0  0  0  0  0  0  0  0  0  0  0
   -7.7851    3.5439   -0.3491 H   0  0  0  0  0  0  0  0  0  0  0  0
   -6.0945    4.0552   -0.2834 H   0  0  0  0  0  0  0  0  0  0  0  0
  1  2  1  0
  2  3  1  0
  3  4  1  0
  4  5  2  0
  5  6  1  0
  6  7  1  0
  7  8  1  0
  8  9  2  0
  9 10  1  0
 10 11  1  0
 11 12  1  0
 12 13  2  0
 12 14  1  0
 14 15  1  0
 15 16  2  0
 16 17  1  0
 17 18  2  0
 18 19  1  0
 19 20  1  0
 19 21  2  0
 18 22  1  0
 22 23  2  0
 10 24  1  0
  6 25  2  0
 25 26  1  0
 26 27  2  0
 27 28  1  0
 28 29  1  0
 27  4  1  0
 24  7  2  0
 23 15  1  0
  1 30  1  0
  1 31  1  0
  1 32  1  0
  2 33  1  0
  2 34  1  0
  5 35  1  0
 11 36  1  0
 11 37  1  0
 14 38  1  0
 16 39  1  0
 17 40  1  0
 20 41  1  0
 20 42  1  0
 20 43  1  0
 22 44  1  0
 23 45  1  0
 25 46  1  0
 26 47  1  0
 29 48  1  0
 29 49  1  0
 29 50  1  0
M  END
$$$$
