
     RDKit          3D

 43 45  0  0  0  0  0  0  0  0999 V2000
    1.5294    1.0567   -1.2117 O   0  0  0  0  0  0  0  0  0  0  0  0
    1.6137    0.8910    0.0020 C   0  0  0  0  0  0  0  0  0  0  0  0
    2.7065    1.3056    0.7261 N   0  0  0  0  0  0  0  0  0  0  0  0
    3.9084    1.7888    0.0850 C   0  0  0  0  0  0  0  0  0  0  0  0
    4.9152    0.6807   -0.0623 C   0  0  0  0  0  0  0  0  0  0  0  0
    5.9349    0.5013    0.8761 C   0  0  0  0  0  0  0  0  0  0  0  0
    6.8189   -0.5527    0.7019 C   0  0  0  0  0  0  0  0  0  0  0  0
    6.7534   -1.4289   -0.3225 N   0  0  0  0  0  0  0  0  0  0  0  0
    5.7533   -1.2462   -1.2114 C   0  0  0  0  0  0  0  0  0  0  0  0
    4.8230   -0.2233   -1.1250 C   0  0  0  0  0  0  0  0  0  0  0  0
    0.4759    0.2631    0.7415 C   0  0  0  0  0  0  0  0  0  0  0  0
   -0.7743    0.3176    0.0911 C   0  0  0  0  0  0  0  0  0  0  0  0
   -1.9245   -0.1957    0.6952 C   0  0  0  0  0  0  0  0  0  0  0  0
   -3.2015   -0.1954    0.0311 N   0  0  0  0  0  0  0  0  0  0  0  0
   -3.6288    1.0857   -0.5892 C   0  0  0  0  0  0  0  0  0  0  0  0
   -5.1409    1.0708   -0.8094 C   0  0  0  0  0  0  0  0  0  0  0  0
   -5.5841   -0.0450   -1.7559 C   0  0  0  0  0  0  0  0  0  0  0  0
   -5.2099   -1.4234   -1.2311 C   0  0  0  0  0  0  0  0  0  0  0  0
   -3.4528   -1.5706   -0.9666 S   0  0  0  0  0  6  0  0  0  0  0  0
   -2.7749   -1.3475   -2.2260 O   0  0  0  0  0  0  0  0  0  0  0  0
   -3.2182   -2.7667   -0.1851 O   0  0  0  0  0  0  0  0  0  0  0  0
   -1.8279   -0.8247    1.9337 C   0  0  0  0  0  0  0  0  0  0  0  0
   -0.5950   -0.9077    2.5809 C   0  0  0  0  0  0  0  0  0  0  0  0
    0.5569   -0.3669    1.9934 C   0  0  0  0  0  0  0  0  0  0  0  0
    2.0252   -0.5755    2.8839 Cl  0  0  0  0  0  0  0  0  0  0  0  0
    2.7852    1.0280    1.6959 H   0  0  0  0  0  0  0  0  0  0  0  0
    4.3118    2.5903    0.7137 H   0  0  0  0  0  0  0  0  0  0  0  0
    3.6794    2.2279   -0.8925 H   0  0  0  0  0  0  0  0  0  0  0  0
    6.0447    1.1634    1.7280 H   0  0  0  0  0  0  0  0  0  0  0  0
    7.6275   -0.7265    1.4062 H   0  0  0  0  0  0  0  0  0  0  0  0
    5.7143   -1.9687   -2.0215 H   0  0  0  0  0  0  0  0  0  0  0  0
    4.0352   -0.1371   -1.8682 H   0  0  0  0  0  0  0  0  0  0  0  0
   -0.8400    0.7597   -0.9016 H   0  0  0  0  0  0  0  0  0  0  0  0
   -3.1000    1.2626   -1.5327 H   0  0  0  0  0  0  0  0  0  0  0  0
   -3.3862    1.9161    0.0851 H   0  0  0  0  0  0  0  0  0  0  0  0
   -5.6536    0.9549    0.1537 H   0  0  0  0  0  0  0  0  0  0  0  0
   -5.4521    2.0366   -1.2241 H   0  0  0  0  0  0  0  0  0  0  0  0
   -5.1318    0.1151   -2.7421 H   0  0  0  0  0  0  0  0  0  0  0  0
   -6.6705    0.0062   -1.8909 H   0  0  0  0  0  0  0  0  0  0  0  0
   -5.4943   -2.2009   -1.9466 H   0  0  0  0  0  0  0  0  0  0  0  0
   -5.7049   -1.6332   -0.2773 H   0  0  0  0  0  0  0  0  0  0  0  0
   -2.7084   -1.2698    2.3909 H   0  0  0  0  0  0  0  0  0  0  0  0
   -0.5383   -1.4155    3.5417 H   0  0  0  0  0  0  0  0  0  0  0  0
  1  2  2  0
  2  3  1  0
  3  4  1  0
  4  5  1  0
  5  6  2  0
  6  7  1  0
  7  8  2  0
  8  9  1  0
  9 10  2  0
  2 11  1  0
 11 12  2  0
 12 13  1  0
 13 14  1  0
 14 15  1  0
 15 16  1  0
 16 17  1  0
 17 18  1  0
 18 19  1  0
 19 20  2  0
 19 21  2  0
 13 22  2  0
 22 23  1  0
 23 24  2  0
 24 25  1  0
 10  5  1  0
 24 11  1  0
 19 14  1  0
  3 26  1  0
  4 27  1  0
  4 28  1  0
  6 29  1  0
  7 30  1  0
  9 31  1  0
 10 32  1  0
 12 33  1  0
 15 34  1  0
 15 35  1  0
 16 36  1  0
 16 37  1  0
 17 38  1  0
 17 39  1  0
 18 40  1  0
 18 41  1  0
 22 42  1  0
 23 43  1  0
M  END
$$$$
