
     RDKit          3D

 40 42  0  0  0  0  0  0  0  0999 V2000
    2.7980   -0.5502   -3.8127 C   0  0  0  0  0  0  0  0  0  0  0  0
    3.9755   -0.4502   -2.8781 C   0  0  0  0  0  0  0  0  0  0  0  0
    5.0700   -0.0518   -3.2738 O   0  0  0  0  0  0  0  0  0  0  0  0
    3.8016   -0.8435   -1.4480 C   0  0  0  0  0  0  0  0  0  0  0  0
    4.9034   -0.7455   -0.5851 C   0  0  0  0  0  0  0  0  0  0  0  0
    4.7911   -1.1200    0.7572 C   0  0  0  0  0  0  0  0  0  0  0  0
    3.5736   -1.5833    1.2487 C   0  0  0  0  0  0  0  0  0  0  0  0
    2.4730   -1.6555    0.3958 C   0  0  0  0  0  0  0  0  0  0  0  0
    1.2834   -2.1398    0.8660 O   0  0  0  0  0  0  0  0  0  0  0  0
    0.4933   -1.1024    1.4523 C   0  0  0  0  0  0  0  0  0  0  0  0
   -0.6255   -0.5746    0.5238 C   0  0  0  0  0  0  0  0  0  0  0  0
   -0.6162   -0.8763   -0.6715 O   0  0  0  0  0  0  0  0  0  0  0  0
   -1.6000    0.2470    1.1285 N   0  0  0  0  0  0  0  0  0  0  0  0
   -1.3621    0.7962    2.4693 C   0  0  0  0  0  0  0  0  0  0  0  0
   -2.2405    1.9235    2.9788 C   0  0  0  0  0  0  0  0  0  0  0  0
   -2.0091    2.5001    4.0404 O   0  0  0  0  0  0  0  0  0  0  0  0
   -3.3371    2.2363    2.2417 N   0  0  0  0  0  0  0  0  0  0  0  0
   -3.6692    1.5964    1.0460 C   0  0  0  0  0  0  0  0  0  0  0  0
   -4.8680    1.9829    0.4297 C   0  0  0  0  0  0  0  0  0  0  0  0
   -5.2731    1.3759   -0.7545 C   0  0  0  0  0  0  0  0  0  0  0  0
   -4.4827    0.3827   -1.3171 C   0  0  0  0  0  0  0  0  0  0  0  0
   -3.2812    0.0035   -0.7042 C   0  0  0  0  0  0  0  0  0  0  0  0
   -2.8358    0.6101    0.4813 C   0  0  0  0  0  0  0  0  0  0  0  0
    2.5819   -1.3117   -0.9515 C   0  0  0  0  0  0  0  0  0  0  0  0
    3.1011   -0.2157   -4.8100 H   0  0  0  0  0  0  0  0  0  0  0  0
    1.9865    0.0973   -3.4710 H   0  0  0  0  0  0  0  0  0  0  0  0
    2.4639   -1.5884   -3.8915 H   0  0  0  0  0  0  0  0  0  0  0  0
    5.8618   -0.3867   -0.9590 H   0  0  0  0  0  0  0  0  0  0  0  0
    5.6574   -1.0587    1.4129 H   0  0  0  0  0  0  0  0  0  0  0  0
    3.4868   -1.8947    2.2858 H   0  0  0  0  0  0  0  0  0  0  0  0
    1.1129   -0.2615    1.7866 H   0  0  0  0  0  0  0  0  0  0  0  0
    0.0211   -1.5514    2.3323 H   0  0  0  0  0  0  0  0  0  0  0  0
   -0.3360    1.1780    2.5024 H   0  0  0  0  0  0  0  0  0  0  0  0
   -1.4528   -0.0313    3.1831 H   0  0  0  0  0  0  0  0  0  0  0  0
   -3.9323    2.9634    2.6170 H   0  0  0  0  0  0  0  0  0  0  0  0
   -5.4979    2.7548    0.8655 H   0  0  0  0  0  0  0  0  0  0  0  0
   -6.2036    1.6711   -1.2332 H   0  0  0  0  0  0  0  0  0  0  0  0
   -4.7945   -0.1080   -2.2369 H   0  0  0  0  0  0  0  0  0  0  0  0
   -2.7285   -0.7966   -1.1880 H   0  0  0  0  0  0  0  0  0  0  0  0
    1.7097   -1.4215   -1.5883 H   0  0  0  0  0  0  0  0  0  0  0  0
  1  2  1  0
  2  3  2  0
  2  4  1  0
  4  5  2  0
  5  6  1  0
  6  7  2  0
  7  8  1  0
  8  9  1  0
  9 10  1  0
 10 11  1  0
 11 12  2  0
 11 13  1  0
 13 14  1  0
 14 15  1  0
 15 16  2  0
 15 17  1  0
 17 18  1  0
 18 19  2  0
 19 20  1  0
 20 21  2  0
 21 22  1  0
 22 23  2  0
  8 24  2  0
 24  4  1  0
 23 13  1  0
 23 18  1  0
  1 25  1  0
  1 26  1  0
  1 27  1  0
  5 28  1  0
  6 29  1  0
  7 30  1  0
 10 31  1  0
 10 32  1  0
 14 33  1  0
 14 34  1  0
 17 35  1  0
 19 36  1  0
 20 37  1  0
 21 38  1  0
 22 39  1  0
 24 40  1  0
M  END
$$$$
