
     RDKit          3D

 37 40  0  0  0  0  0  0  0  0999 V2000
    2.8808    2.0445   -0.2191 O   0  0  0  0  0  0  0  0  0  0  0  0
    1.7392    1.6102   -0.3032 C   0  0  0  0  0  0  0  0  0  0  0  0
    0.6783    2.4661   -0.4062 N   0  0  0  0  0  0  0  0  0  0  0  0
   -0.5173    2.1670   -0.9891 C   0  0  0  0  0  0  0  0  0  0  0  0
   -1.2722    3.0840   -1.3094 O   0  0  0  0  0  0  0  0  0  0  0  0
   -0.7796    0.8342   -1.2060 N   0  0  0  0  0  0  0  0  0  0  0  0
   -2.0857    0.4451   -1.7290 C   0  0  0  0  0  0  0  0  0  0  0  0
   -3.1059    0.2041   -0.6356 C   0  0  0  0  0  0  0  0  0  0  0  0
   -3.3458   -1.0905   -0.1536 C   0  0  0  0  0  0  0  0  0  0  0  0
   -4.2762   -1.3093    0.8641 C   0  0  0  0  0  0  0  0  0  0  0  0
   -4.9752   -0.2366    1.4133 C   0  0  0  0  0  0  0  0  0  0  0  0
   -4.7438    1.0556    0.9467 C   0  0  0  0  0  0  0  0  0  0  0  0
   -3.8137    1.2756   -0.0707 C   0  0  0  0  0  0  0  0  0  0  0  0
    0.1656   -0.1727   -0.8918 C   0  0  0  0  0  0  0  0  0  0  0  0
   -0.1830   -1.4655   -1.1152 N   0  0  0  0  0  0  0  0  0  0  0  0
    0.7076   -2.4306   -0.8131 C   0  0  0  0  0  0  0  0  0  0  0  0
    1.9557   -2.1739   -0.2859 C   0  0  0  0  0  0  0  0  0  0  0  0
    2.3253   -0.8453   -0.0588 C   0  0  0  0  0  0  0  0  0  0  0  0
    3.6116   -0.5998    0.5652 C   0  0  0  0  0  0  0  0  0  0  0  0
    4.9217   -0.8378    0.2060 C   0  0  0  0  0  0  0  0  0  0  0  0
    5.7176   -0.3911    1.2896 C   0  0  0  0  0  0  0  0  0  0  0  0
    4.8419    0.0731    2.2430 C   0  0  0  0  0  0  0  0  0  0  0  0
    3.5591   -0.0645    1.8181 O   0  0  0  0  0  0  0  0  0  0  0  0
    1.4196    0.1742   -0.3947 C   0  0  0  0  0  0  0  0  0  0  0  0
    0.9033    3.4500   -0.3783 H   0  0  0  0  0  0  0  0  0  0  0  0
   -2.4627    1.2404   -2.3855 H   0  0  0  0  0  0  0  0  0  0  0  0
   -1.9969   -0.4330   -2.3806 H   0  0  0  0  0  0  0  0  0  0  0  0
   -2.8041   -1.9379   -0.5681 H   0  0  0  0  0  0  0  0  0  0  0  0
   -4.4528   -2.3174    1.2294 H   0  0  0  0  0  0  0  0  0  0  0  0
   -5.6985   -0.4068    2.2061 H   0  0  0  0  0  0  0  0  0  0  0  0
   -5.2857    1.8946    1.3753 H   0  0  0  0  0  0  0  0  0  0  0  0
   -3.6434    2.2922   -0.4216 H   0  0  0  0  0  0  0  0  0  0  0  0
    0.3755   -3.4479   -1.0020 H   0  0  0  0  0  0  0  0  0  0  0  0
    2.6193   -2.9962   -0.0354 H   0  0  0  0  0  0  0  0  0  0  0  0
    5.2614   -1.2640   -0.7270 H   0  0  0  0  0  0  0  0  0  0  0  0
    6.7956   -0.4001    1.3655 H   0  0  0  0  0  0  0  0  0  0  0  0
    4.9636    0.5101    3.2242 H   0  0  0  0  0  0  0  0  0  0  0  0
  1  2  2  0
  2  3  1  0
  3  4  1  0
  4  5  2  0
  4  6  1  0
  6  7  1  0
  7  8  1  0
  8  9  2  0
  9 10  1  0
 10 11  2  0
 11 12  1  0
 12 13  2  0
  6 14  1  0
 14 15  2  0
 15 16  1  0
 16 17  2  0
 17 18  1  0
 18 19  1  0
 19 20  2  0
 20 21  1  0
 21 22  2  0
 22 23  1  0
 18 24  2  0
 24  2  1  0
 13  8  1  0
 24 14  1  0
 23 19  1  0
  3 25  1  0
  7 26  1  0
  7 27  1  0
  9 28  1  0
 10 29  1  0
 11 30  1  0
 12 31  1  0
 13 32  1  0
 16 33  1  0
 17 34  1  0
 20 35  1  0
 21 36  1  0
 22 37  1  0
M  END
$$$$
