
     RDKit          3D

 56 59  0  0  0  0  0  0  0  0999 V2000
    2.0884   -2.6461    0.8916 O   0  0  0  0  0  0  0  0  0  0  0  0
    2.2716   -1.5955    1.4962 C   0  0  0  0  0  0  0  0  0  0  0  0
    1.3215   -0.6063    1.5476 N   0  0  0  0  0  0  0  0  0  0  0  0
    0.0377   -0.7584    0.8874 C   0  0  0  0  0  0  0  0  0  0  0  0
   -0.8121    0.4938    1.1247 C   0  0  0  0  0  0  0  0  0  0  0  0
   -0.3717    1.4186    1.8162 O   0  0  0  0  0  0  0  0  0  0  0  0
   -2.0818    0.5233    0.5607 N   0  0  0  0  0  0  0  0  0  0  0  0
   -2.8213    1.7906    0.6156 C   0  0  0  0  0  0  0  0  0  0  0  0
   -4.3458    1.5983    0.5486 C   0  0  0  0  0  0  0  0  0  0  0  0
   -4.7098    0.7631   -0.6164 N   0  0  0  0  0  0  0  0  0  0  0  0
   -6.0675    0.6895   -0.9707 C   0  0  0  0  0  0  0  0  0  0  0  0
   -6.4147    0.2423   -2.2600 C   0  0  0  0  0  0  0  0  0  0  0  0
   -7.7474    0.1555   -2.6722 C   0  0  0  0  0  0  0  0  0  0  0  0
   -8.7552    0.5231   -1.7953 C   0  0  0  0  0  0  0  0  0  0  0  0
  -10.0344    0.4423   -2.1834 F   0  0  0  0  0  0  0  0  0  0  0  0
   -8.4524    0.9788   -0.5210 C   0  0  0  0  0  0  0  0  0  0  0  0
   -7.1158    1.0652   -0.1148 C   0  0  0  0  0  0  0  0  0  0  0  0
   -4.0409   -0.5594   -0.5885 C   0  0  0  0  0  0  0  0  0  0  0  0
   -2.5102   -0.3943   -0.5057 C   0  0  0  0  0  0  0  0  0  0  0  0
    3.5465   -1.2683    2.2568 C   0  0  0  0  0  0  0  0  0  0  0  0
    4.5139   -2.4393    2.3086 C   0  0  0  0  0  0  0  0  0  0  0  0
    5.4445   -2.1975    1.1442 C   0  0  0  0  0  0  0  0  0  0  0  0
    6.2155   -3.0521    0.7338 O   0  0  0  0  0  0  0  0  0  0  0  0
    5.2989   -0.8636    0.7369 N   0  0  0  0  0  0  0  0  0  0  0  0
    6.0572   -0.2004   -0.2696 C   0  0  0  0  0  0  0  0  0  0  0  0
    5.9584    1.1907   -0.4430 C   0  0  0  0  0  0  0  0  0  0  0  0
    6.6955    1.8567   -1.4297 C   0  0  0  0  0  0  0  0  0  0  0  0
    7.5467    1.1436   -2.2654 C   0  0  0  0  0  0  0  0  0  0  0  0
    7.6586   -0.2335   -2.1129 C   0  0  0  0  0  0  0  0  0  0  0  0
    6.9206   -0.8969   -1.1249 C   0  0  0  0  0  0  0  0  0  0  0  0
    4.3343   -0.1734    1.5620 C   0  0  0  0  0  0  0  0  0  0  0  0
    1.4328    0.2201    2.1285 H   0  0  0  0  0  0  0  0  0  0  0  0
    0.2213   -0.8972   -0.1820 H   0  0  0  0  0  0  0  0  0  0  0  0
   -0.4638   -1.6353    1.3077 H   0  0  0  0  0  0  0  0  0  0  0  0
   -2.4808    2.3924   -0.2364 H   0  0  0  0  0  0  0  0  0  0  0  0
   -2.5661    2.3397    1.5284 H   0  0  0  0  0  0  0  0  0  0  0  0
   -4.6856    1.1188    1.4757 H   0  0  0  0  0  0  0  0  0  0  0  0
   -4.8123    2.5881    0.4753 H   0  0  0  0  0  0  0  0  0  0  0  0
   -5.6338   -0.0190   -2.9702 H   0  0  0  0  0  0  0  0  0  0  0  0
   -7.9978   -0.1868   -3.6706 H   0  0  0  0  0  0  0  0  0  0  0  0
   -9.2544    1.2652    0.1515 H   0  0  0  0  0  0  0  0  0  0  0  0
   -6.9204    1.4181    0.8929 H   0  0  0  0  0  0  0  0  0  0  0  0
   -4.2659   -1.1546   -1.4807 H   0  0  0  0  0  0  0  0  0  0  0  0
   -4.3933   -1.1242    0.2848 H   0  0  0  0  0  0  0  0  0  0  0  0
   -2.0559   -1.3792   -0.3689 H   0  0  0  0  0  0  0  0  0  0  0  0
   -2.1270    0.0183   -1.4471 H   0  0  0  0  0  0  0  0  0  0  0  0
    3.2457   -0.9696    3.2683 H   0  0  0  0  0  0  0  0  0  0  0  0
    5.1116   -2.4106    3.2262 H   0  0  0  0  0  0  0  0  0  0  0  0
    4.0341   -3.4172    2.2191 H   0  0  0  0  0  0  0  0  0  0  0  0
    5.3191    1.7986    0.1891 H   0  0  0  0  0  0  0  0  0  0  0  0
    6.6039    2.9341   -1.5405 H   0  0  0  0  0  0  0  0  0  0  0  0
    8.1204    1.6568   -3.0321 H   0  0  0  0  0  0  0  0  0  0  0  0
    8.3187   -0.8030   -2.7624 H   0  0  0  0  0  0  0  0  0  0  0  0
    7.0376   -1.9744   -1.0618 H   0  0  0  0  0  0  0  0  0  0  0  0
    4.8844    0.4286    2.2948 H   0  0  0  0  0  0  0  0  0  0  0  0
    3.6990    0.4772    0.9531 H   0  0  0  0  0  0  0  0  0  0  0  0
  1  2  2  0
  2  3  1  0
  3  4  1  0
  4  5  1  0
  5  6  2  0
  5  7  1  0
  7  8  1  0
  8  9  1  0
  9 10  1  0
 10 11  1  0
 11 12  2  0
 12 13  1  0
 13 14  2  0
 14 15  1  0
 14 16  1  0
 16 17  2  0
 10 18  1  0
 18 19  1  0
  2 20  1  0
 20 21  1  0
 21 22  1  0
 22 23  2  0
 22 24  1  0
 24 25  1  0
 25 26  2  0
 26 27  1  0
 27 28  2  0
 28 29  1  0
 29 30  2  0
 24 31  1  0
 19  7  1  0
 31 20  1  0
 17 11  1  0
 30 25  1  0
  3 32  1  0
  4 33  1  0
  4 34  1  0
  8 35  1  0
  8 36  1  0
  9 37  1  0
  9 38  1  0
 12 39  1  0
 13 40  1  0
 16 41  1  0
 17 42  1  0
 18 43  1  0
 18 44  1  0
 19 45  1  0
 19 46  1  0
 20 47  1  0
 21 48  1  0
 21 49  1  0
 26 50  1  0
 27 51  1  0
 28 52  1  0
 29 53  1  0
 30 54  1  0
 31 55  1  0
 31 56  1  0
M  END
$$$$
