
     RDKit          3D

 45 46  0  0  0  0  0  0  0  0999 V2000
    6.8178    0.0639    0.0228 C   0  0  0  0  0  0  0  0  0  0  0  0
    5.8660    0.6899   -0.8889 N   0  0  0  0  0  0  0  0  0  0  0  0
    5.7716    2.1274   -0.6454 C   0  0  0  0  0  0  0  0  0  0  0  0
    4.5458    0.0366   -0.8767 C   0  0  0  0  0  0  0  0  0  0  0  0
    3.7704    0.0260    0.4569 C   0  0  0  0  0  0  0  0  0  0  0  0
    2.5019   -0.6729    0.3450 N   0  0  0  0  0  0  0  0  0  0  0  0
    1.3910   -0.0684   -0.1966 C   0  0  0  0  0  0  0  0  0  0  0  0
    1.3590    1.1152   -0.5176 O   0  0  0  0  0  0  0  0  0  0  0  0
    0.1668   -0.8984   -0.3443 C   0  0  0  0  0  0  0  0  0  0  0  0
   -1.0530   -0.2371   -0.1184 C   0  0  0  0  0  0  0  0  0  0  0  0
   -2.2646   -0.9220   -0.2126 C   0  0  0  0  0  0  0  0  0  0  0  0
   -3.4772   -0.1725   -0.0410 N   0  0  0  0  0  0  0  0  0  0  0  0
   -4.0050    0.4779   -1.2693 C   0  0  0  0  0  0  0  0  0  0  0  0
   -5.3193    1.2213   -1.0117 C   0  0  0  0  0  0  0  0  0  0  0  0
   -5.4144    1.7506    0.4157 C   0  0  0  0  0  0  0  0  0  0  0  0
   -5.5695    0.6271    1.4361 C   0  0  0  0  0  0  0  0  0  0  0  0
   -4.6273   -0.8352    1.0191 S   0  0  0  0  0  6  0  0  0  0  0  0
   -5.4717   -1.7257    0.2482 O   0  0  0  0  0  0  0  0  0  0  0  0
   -3.9523   -1.2950    2.2145 O   0  0  0  0  0  0  0  0  0  0  0  0
   -2.2713   -2.2612   -0.6028 C   0  0  0  0  0  0  0  0  0  0  0  0
   -1.0657   -2.9249   -0.8412 C   0  0  0  0  0  0  0  0  0  0  0  0
    0.1547   -2.2502   -0.7131 C   0  0  0  0  0  0  0  0  0  0  0  0
    1.5814   -3.1521   -1.0853 Cl  0  0  0  0  0  0  0  0  0  0  0  0
    6.5505    0.2058    1.0754 H   0  0  0  0  0  0  0  0  0  0  0  0
    7.8197    0.4810   -0.1293 H   0  0  0  0  0  0  0  0  0  0  0  0
    6.8940   -1.0112   -0.1741 H   0  0  0  0  0  0  0  0  0  0  0  0
    6.7458    2.6038   -0.8034 H   0  0  0  0  0  0  0  0  0  0  0  0
    5.0771    2.5964   -1.3511 H   0  0  0  0  0  0  0  0  0  0  0  0
    5.4429    2.3618    0.3727 H   0  0  0  0  0  0  0  0  0  0  0  0
    3.9224    0.4993   -1.6533 H   0  0  0  0  0  0  0  0  0  0  0  0
    4.6745   -1.0015   -1.2123 H   0  0  0  0  0  0  0  0  0  0  0  0
    3.5709    1.0471    0.7979 H   0  0  0  0  0  0  0  0  0  0  0  0
    4.3386   -0.4917    1.2356 H   0  0  0  0  0  0  0  0  0  0  0  0
    2.4968   -1.6748    0.4958 H   0  0  0  0  0  0  0  0  0  0  0  0
   -1.0538    0.8179    0.1508 H   0  0  0  0  0  0  0  0  0  0  0  0
   -4.1385   -0.2539   -2.0742 H   0  0  0  0  0  0  0  0  0  0  0  0
   -3.2612    1.2098   -1.6093 H   0  0  0  0  0  0  0  0  0  0  0  0
   -6.1685    0.5563   -1.2125 H   0  0  0  0  0  0  0  0  0  0  0  0
   -5.4055    2.0491   -1.7254 H   0  0  0  0  0  0  0  0  0  0  0  0
   -4.5166    2.3378    0.6460 H   0  0  0  0  0  0  0  0  0  0  0  0
   -6.2652    2.4354    0.5071 H   0  0  0  0  0  0  0  0  0  0  0  0
   -6.6162    0.3129    1.5050 H   0  0  0  0  0  0  0  0  0  0  0  0
   -5.2465    0.9705    2.4235 H   0  0  0  0  0  0  0  0  0  0  0  0
   -3.2071   -2.8015   -0.7274 H   0  0  0  0  0  0  0  0  0  0  0  0
   -1.0893   -3.9709   -1.1406 H   0  0  0  0  0  0  0  0  0  0  0  0
  1  2  1  0
  2  3  1  0
  2  4  1  0
  4  5  1  0
  5  6  1  0
  6  7  1  0
  7  8  2  0
  7  9  1  0
  9 10  2  0
 10 11  1  0
 11 12  1  0
 12 13  1  0
 13 14  1  0
 14 15  1  0
 15 16  1  0
 16 17  1  0
 17 18  2  0
 17 19  2  0
 11 20  2  0
 20 21  1  0
 21 22  2  0
 22 23  1  0
 22  9  1  0
 17 12  1  0
  1 24  1  0
  1 25  1  0
  1 26  1  0
  3 27  1  0
  3 28  1  0
  3 29  1  0
  4 30  1  0
  4 31  1  0
  5 32  1  0
  5 33  1  0
  6 34  1  0
 10 35  1  0
 13 36  1  0
 13 37  1  0
 14 38  1  0
 14 39  1  0
 15 40  1  0
 15 41  1  0
 16 42  1  0
 16 43  1  0
 20 44  1  0
 21 45  1  0
M  END
$$$$
