
     RDKit          3D

 40 41  0  0  0  0  0  0  0  0999 V2000
    4.7390    2.9879    1.1220 C   0  0  0  0  0  0  0  0  0  0  0  0
    4.4648    1.8244    0.3513 O   0  0  0  0  0  0  0  0  0  0  0  0
    3.1752    1.3666    0.3469 C   0  0  0  0  0  0  0  0  0  0  0  0
    2.0755    2.1164    0.7709 C   0  0  0  0  0  0  0  0  0  0  0  0
    0.7885    1.5627    0.7601 C   0  0  0  0  0  0  0  0  0  0  0  0
    0.5772    0.2369    0.3494 C   0  0  0  0  0  0  0  0  0  0  0  0
   -0.7524   -0.2861    0.3505 N   0  0  0  0  0  0  0  0  0  0  0  0
   -1.7878    0.5906    0.3786 N   0  0  0  0  0  0  0  0  0  0  0  0
   -2.8945   -0.1330    0.1631 C   0  0  0  0  0  0  0  0  0  0  0  0
   -4.2085    0.5250    0.1154 C   0  0  0  0  0  0  0  0  0  0  0  0
   -4.2503    2.0325    0.1788 C   0  0  0  0  0  0  0  0  0  0  0  0
   -5.2545   -0.1177    0.0383 O   0  0  0  0  0  0  0  0  0  0  0  0
   -2.5871   -1.5165    0.0638 C   0  0  0  0  0  0  0  0  0  0  0  0
   -3.4734   -2.6557   -0.1689 C   0  0  0  0  0  0  0  0  0  0  0  0
   -4.5137   -2.5758   -1.2570 C   0  0  0  0  0  0  0  0  0  0  0  0
   -3.3452   -3.6994    0.4713 O   0  0  0  0  0  0  0  0  0  0  0  0
   -1.2154   -1.5938    0.3003 C   0  0  0  0  0  0  0  0  0  0  0  0
   -0.3710   -2.8057    0.4956 C   0  0  0  0  0  0  0  0  0  0  0  0
    1.6719   -0.5048   -0.0996 C   0  0  0  0  0  0  0  0  0  0  0  0
    2.9540    0.0631   -0.1258 C   0  0  0  0  0  0  0  0  0  0  0  0
    3.9409   -0.7753   -0.5860 O   0  0  0  0  0  0  0  0  0  0  0  0
    4.7365   -0.1970   -1.6211 C   0  0  0  0  0  0  0  0  0  0  0  0
    4.2959    3.8767    0.6611 H   0  0  0  0  0  0  0  0  0  0  0  0
    5.8240    3.1282    1.1360 H   0  0  0  0  0  0  0  0  0  0  0  0
    4.4042    2.8704    2.1584 H   0  0  0  0  0  0  0  0  0  0  0  0
    2.1804    3.1409    1.1148 H   0  0  0  0  0  0  0  0  0  0  0  0
   -0.0414    2.1815    1.0985 H   0  0  0  0  0  0  0  0  0  0  0  0
   -5.2791    2.3725    0.0352 H   0  0  0  0  0  0  0  0  0  0  0  0
   -3.9029    2.3747    1.1559 H   0  0  0  0  0  0  0  0  0  0  0  0
   -3.6348    2.4606   -0.6169 H   0  0  0  0  0  0  0  0  0  0  0  0
   -4.4722   -3.4962   -1.8470 H   0  0  0  0  0  0  0  0  0  0  0  0
   -5.5079   -2.4835   -0.8146 H   0  0  0  0  0  0  0  0  0  0  0  0
   -4.3197   -1.7399   -1.9348 H   0  0  0  0  0  0  0  0  0  0  0  0
    0.0321   -3.1519   -0.4613 H   0  0  0  0  0  0  0  0  0  0  0  0
   -0.9473   -3.6292    0.9269 H   0  0  0  0  0  0  0  0  0  0  0  0
    0.4499   -2.6226    1.1958 H   0  0  0  0  0  0  0  0  0  0  0  0
    1.5716   -1.5080   -0.4958 H   0  0  0  0  0  0  0  0  0  0  0  0
    4.1743    0.5090   -2.2438 H   0  0  0  0  0  0  0  0  0  0  0  0
    5.6243    0.2817   -1.1982 H   0  0  0  0  0  0  0  0  0  0  0  0
    5.0786   -1.0101   -2.2683 H   0  0  0  0  0  0  0  0  0  0  0  0
  1  2  1  0
  2  3  1  0
  3  4  2  0
  4  5  1  0
  5  6  2  0
  6  7  1  0
  7  8  1  0
  8  9  2  0
  9 10  1  0
 10 11  1  0
 10 12  2  0
  9 13  1  0
 13 14  1  0
 14 15  1  0
 14 16  2  0
 13 17  2  0
 17 18  1  0
  6 19  1  0
 19 20  2  0
 20 21  1  0
 21 22  1  0
 20  3  1  0
 17  7  1  0
  1 23  1  0
  1 24  1  0
  1 25  1  0
  4 26  1  0
  5 27  1  0
 11 28  1  0
 11 29  1  0
 11 30  1  0
 15 31  1  0
 15 32  1  0
 15 33  1  0
 18 34  1  0
 18 35  1  0
 18 36  1  0
 19 37  1  0
 22 38  1  0
 22 39  1  0
 22 40  1  0
M  END
$$$$
