
     RDKit          3D

 41 43  0  0  0  0  0  0  0  0999 V2000
    2.8435    2.4111   -0.9398 O   0  0  0  0  0  0  0  0  0  0  0  0
    2.1377    1.5307   -0.4608 C   0  0  0  0  0  0  0  0  0  0  0  0
    2.5254    0.2341   -0.1853 N   0  0  0  0  0  0  0  0  0  0  0  0
    3.7739   -0.3670   -0.4628 C   0  0  0  0  0  0  0  0  0  0  0  0
    4.8146    0.2529   -1.1544 C   0  0  0  0  0  0  0  0  0  0  0  0
    6.0147   -0.4320   -1.3846 C   0  0  0  0  0  0  0  0  0  0  0  0
    6.1840   -1.7399   -0.9283 C   0  0  0  0  0  0  0  0  0  0  0  0
    5.1510   -2.3692   -0.2393 C   0  0  0  0  0  0  0  0  0  0  0  0
    3.9617   -1.6815   -0.0146 C   0  0  0  0  0  0  0  0  0  0  0  0
    2.9729   -2.2979    0.6541 F   0  0  0  0  0  0  0  0  0  0  0  0
    0.7349    1.8772   -0.0836 C   0  0  0  0  0  0  0  0  0  0  0  0
    0.4535    3.2059    0.2647 C   0  0  0  0  0  0  0  0  0  0  0  0
   -0.8374    3.5787    0.6386 C   0  0  0  0  0  0  0  0  0  0  0  0
   -1.8566    2.6277    0.6514 C   0  0  0  0  0  0  0  0  0  0  0  0
   -1.5969    1.3119    0.2604 C   0  0  0  0  0  0  0  0  0  0  0  0
   -2.6728    0.3625    0.3705 N   0  0  0  0  0  0  0  0  0  0  0  0
   -2.7318   -0.3867    1.6510 C   0  0  0  0  0  0  0  0  0  0  0  0
   -4.1465   -0.9241    1.8664 C   0  0  0  0  0  0  0  0  0  0  0  0
   -4.5956   -1.8757    0.7564 C   0  0  0  0  0  0  0  0  0  0  0  0
   -4.5843   -1.2097   -0.6127 C   0  0  0  0  0  0  0  0  0  0  0  0
   -2.9629   -0.5900   -1.0191 S   0  0  0  0  0  6  0  0  0  0  0  0
   -3.0843    0.2812   -2.1677 O   0  0  0  0  0  0  0  0  0  0  0  0
   -2.0297   -1.6984   -1.0114 O   0  0  0  0  0  0  0  0  0  0  0  0
   -0.2969    0.9285   -0.0855 C   0  0  0  0  0  0  0  0  0  0  0  0
    1.8841   -0.3658    0.3211 H   0  0  0  0  0  0  0  0  0  0  0  0
    4.7237    1.2662   -1.5335 H   0  0  0  0  0  0  0  0  0  0  0  0
    6.8181    0.0629   -1.9262 H   0  0  0  0  0  0  0  0  0  0  0  0
    7.1182   -2.2643   -1.1124 H   0  0  0  0  0  0  0  0  0  0  0  0
    5.2619   -3.3861    0.1224 H   0  0  0  0  0  0  0  0  0  0  0  0
    1.2452    3.9535    0.2499 H   0  0  0  0  0  0  0  0  0  0  0  0
   -1.0474    4.6087    0.9160 H   0  0  0  0  0  0  0  0  0  0  0  0
   -2.8612    2.9203    0.9456 H   0  0  0  0  0  0  0  0  0  0  0  0
   -2.4864    0.2819    2.4852 H   0  0  0  0  0  0  0  0  0  0  0  0
   -1.9938   -1.1972    1.6580 H   0  0  0  0  0  0  0  0  0  0  0  0
   -4.1873   -1.4501    2.8272 H   0  0  0  0  0  0  0  0  0  0  0  0
   -4.8519   -0.0860    1.9301 H   0  0  0  0  0  0  0  0  0  0  0  0
   -3.9418   -2.7562    0.7489 H   0  0  0  0  0  0  0  0  0  0  0  0
   -5.6085   -2.2325    0.9748 H   0  0  0  0  0  0  0  0  0  0  0  0
   -4.8623   -1.9238   -1.3938 H   0  0  0  0  0  0  0  0  0  0  0  0
   -5.2799   -0.3652   -0.6511 H   0  0  0  0  0  0  0  0  0  0  0  0
   -0.1027   -0.0967   -0.3840 H   0  0  0  0  0  0  0  0  0  0  0  0
  1  2  2  0
  2  3  1  0
  3  4  1  0
  4  5  2  0
  5  6  1  0
  6  7  2  0
  7  8  1  0
  8  9  2  0
  9 10  1  0
  2 11  1  0
 11 12  2  0
 12 13  1  0
 13 14  2  0
 14 15  1  0
 15 16  1  0
 16 17  1  0
 17 18  1  0
 18 19  1  0
 19 20  1  0
 20 21  1  0
 21 22  2  0
 21 23  2  0
 15 24  2  0
  9  4  1  0
 24 11  1  0
 21 16  1  0
  3 25  1  0
  5 26  1  0
  6 27  1  0
  7 28  1  0
  8 29  1  0
 12 30  1  0
 13 31  1  0
 14 32  1  0
 17 33  1  0
 17 34  1  0
 18 35  1  0
 18 36  1  0
 19 37  1  0
 19 38  1  0
 20 39  1  0
 20 40  1  0
 24 41  1  0
M  END
$$$$
