
     RDKit          3D

 34 36  0  0  0  0  0  0  0  0999 V2000
   -3.1318    1.4716    2.9226 C   0  0  0  0  0  0  0  0  0  0  0  0
   -2.5228    0.6925    1.9034 O   0  0  0  0  0  0  0  0  0  0  0  0
   -3.3328    0.1953    0.9119 C   0  0  0  0  0  0  0  0  0  0  0  0
   -4.7201    0.3699    0.8597 C   0  0  0  0  0  0  0  0  0  0  0  0
   -5.4599   -0.1716   -0.1934 C   0  0  0  0  0  0  0  0  0  0  0  0
   -4.8203   -0.8930   -1.1972 C   0  0  0  0  0  0  0  0  0  0  0  0
   -3.4365   -1.0749   -1.1558 C   0  0  0  0  0  0  0  0  0  0  0  0
   -2.6846   -0.5311   -0.1077 C   0  0  0  0  0  0  0  0  0  0  0  0
   -1.3247   -0.6682    0.0240 O   0  0  0  0  0  0  0  0  0  0  0  0
   -0.6004   -1.1458   -1.1050 C   0  0  0  0  0  0  0  0  0  0  0  0
    0.8408   -1.0535   -0.7678 C   0  0  0  0  0  0  0  0  0  0  0  0
    1.7452   -0.1748   -1.1433 N   0  0  0  0  0  0  0  0  0  0  0  0
    2.8869   -0.6371   -0.5228 C   0  0  0  0  0  0  0  0  0  0  0  0
    4.1684    0.0459   -0.6483 C   0  0  0  0  0  0  0  0  0  0  0  0
    4.2616    1.2409   -1.3670 C   0  0  0  0  0  0  0  0  0  0  0  0
    5.4966    1.8573   -1.4678 C   0  0  0  0  0  0  0  0  0  0  0  0
    6.6254    1.3702   -0.9112 N   0  0  0  0  0  0  0  0  0  0  0  0
    6.5142    0.2170   -0.2186 C   0  0  0  0  0  0  0  0  0  0  0  0
    5.3250   -0.4736   -0.0597 C   0  0  0  0  0  0  0  0  0  0  0  0
    2.7046   -1.7684    0.1792 N   0  0  0  0  0  0  0  0  0  0  0  0
    1.3473   -2.0409    0.0247 O   0  0  0  0  0  0  0  0  0  0  0  0
   -3.6091    2.3640    2.5044 H   0  0  0  0  0  0  0  0  0  0  0  0
   -2.3438    1.8059    3.6049 H   0  0  0  0  0  0  0  0  0  0  0  0
   -3.8443    0.8759    3.5028 H   0  0  0  0  0  0  0  0  0  0  0  0
   -5.2564    0.9221    1.6244 H   0  0  0  0  0  0  0  0  0  0  0  0
   -6.5379   -0.0322   -0.2266 H   0  0  0  0  0  0  0  0  0  0  0  0
   -5.4005   -1.3187   -2.0123 H   0  0  0  0  0  0  0  0  0  0  0  0
   -2.9817   -1.6542   -1.9524 H   0  0  0  0  0  0  0  0  0  0  0  0
   -0.8575   -2.1908   -1.3133 H   0  0  0  0  0  0  0  0  0  0  0  0
   -0.8048   -0.5263   -1.9866 H   0  0  0  0  0  0  0  0  0  0  0  0
    3.3925    1.6872   -1.8391 H   0  0  0  0  0  0  0  0  0  0  0  0
    5.6139    2.7874   -2.0166 H   0  0  0  0  0  0  0  0  0  0  0  0
    7.4377   -0.1513    0.2198 H   0  0  0  0  0  0  0  0  0  0  0  0
    5.3095   -1.3966    0.5112 H   0  0  0  0  0  0  0  0  0  0  0  0
  1  2  1  0
  2  3  1  0
  3  4  2  0
  4  5  1  0
  5  6  2  0
  6  7  1  0
  7  8  2  0
  8  9  1  0
  9 10  1  0
 10 11  1  0
 11 12  2  0
 12 13  1  0
 13 14  1  0
 14 15  2  0
 15 16  1  0
 16 17  2  0
 17 18  1  0
 18 19  2  0
 13 20  2  0
 20 21  1  0
  8  3  1  0
 21 11  1  0
 19 14  1  0
  1 22  1  0
  1 23  1  0
  1 24  1  0
  4 25  1  0
  5 26  1  0
  6 27  1  0
  7 28  1  0
 10 29  1  0
 10 30  1  0
 15 31  1  0
 16 32  1  0
 18 33  1  0
 19 34  1  0
M  END
$$$$
