
     RDKit          3D

 49 51  0  0  0  0  0  0  0  0999 V2000
    7.9989    0.8784   -0.8668 C   0  0  0  0  0  0  0  0  0  0  0  0
    7.0820    0.0489   -0.1691 O   0  0  0  0  0  0  0  0  0  0  0  0
    5.7517    0.3822   -0.2209 C   0  0  0  0  0  0  0  0  0  0  0  0
    5.2379    1.4778   -0.9179 C   0  0  0  0  0  0  0  0  0  0  0  0
    3.8637    1.7366   -0.9129 C   0  0  0  0  0  0  0  0  0  0  0  0
    2.9811    0.9061   -0.2158 C   0  0  0  0  0  0  0  0  0  0  0  0
    1.6104    1.2445   -0.2606 N   0  0  0  0  0  0  0  0  0  0  0  0
    0.5504    0.5291    0.2700 C   0  0  0  0  0  0  0  0  0  0  0  0
    0.6076   -0.5717    0.8041 O   0  0  0  0  0  0  0  0  0  0  0  0
   -0.7886    1.1673    0.1059 C   0  0  0  0  0  0  0  0  0  0  0  0
   -0.9538    2.5595    0.1180 C   0  0  0  0  0  0  0  0  0  0  0  0
   -2.2257    3.1122   -0.0404 C   0  0  0  0  0  0  0  0  0  0  0  0
   -3.3316    2.2791   -0.2123 C   0  0  0  0  0  0  0  0  0  0  0  0
   -3.1736    0.8919   -0.2263 C   0  0  0  0  0  0  0  0  0  0  0  0
   -4.3479    0.0691   -0.3368 N   0  0  0  0  0  0  0  0  0  0  0  0
   -4.3387   -1.0067   -1.3642 C   0  0  0  0  0  0  0  0  0  0  0  0
   -4.6444   -2.3879   -0.7982 C   0  0  0  0  0  0  0  0  0  0  0  0
   -6.0134   -2.4915   -0.1196 C   0  0  0  0  0  0  0  0  0  0  0  0
   -6.4805   -1.2197    0.5755 C   0  0  0  0  0  0  0  0  0  0  0  0
   -5.1165   -0.2402    1.1582 S   0  0  0  0  0  6  0  0  0  0  0  0
   -5.6381    1.0089    1.6728 O   0  0  0  0  0  0  0  0  0  0  0  0
   -4.2615   -1.0834    1.9665 O   0  0  0  0  0  0  0  0  0  0  0  0
   -1.9073    0.3352   -0.0358 C   0  0  0  0  0  0  0  0  0  0  0  0
    3.4948   -0.1865    0.4867 C   0  0  0  0  0  0  0  0  0  0  0  0
    4.8715   -0.4581    0.4883 C   0  0  0  0  0  0  0  0  0  0  0  0
    5.4526   -1.5124    1.1524 O   0  0  0  0  0  0  0  0  0  0  0  0
    4.5941   -2.4004    1.8555 C   0  0  0  0  0  0  0  0  0  0  0  0
    9.0025    0.4696   -0.7150 H   0  0  0  0  0  0  0  0  0  0  0  0
    7.7974    0.8724   -1.9430 H   0  0  0  0  0  0  0  0  0  0  0  0
    7.9921    1.8981   -0.4679 H   0  0  0  0  0  0  0  0  0  0  0  0
    5.8790    2.1512   -1.4762 H   0  0  0  0  0  0  0  0  0  0  0  0
    3.4990    2.5977   -1.4668 H   0  0  0  0  0  0  0  0  0  0  0  0
    1.3839    2.0661   -0.8044 H   0  0  0  0  0  0  0  0  0  0  0  0
   -0.1140    3.2265    0.2932 H   0  0  0  0  0  0  0  0  0  0  0  0
   -2.3626    4.1906   -0.0083 H   0  0  0  0  0  0  0  0  0  0  0  0
   -4.3234    2.7143   -0.3125 H   0  0  0  0  0  0  0  0  0  0  0  0
   -3.3783   -1.0457   -1.8905 H   0  0  0  0  0  0  0  0  0  0  0  0
   -5.0939   -0.7463   -2.1162 H   0  0  0  0  0  0  0  0  0  0  0  0
   -4.5919   -3.1326   -1.6015 H   0  0  0  0  0  0  0  0  0  0  0  0
   -3.8615   -2.6670   -0.0821 H   0  0  0  0  0  0  0  0  0  0  0  0
   -6.7716   -2.7846   -0.8559 H   0  0  0  0  0  0  0  0  0  0  0  0
   -5.9720   -3.3111    0.6086 H   0  0  0  0  0  0  0  0  0  0  0  0
   -7.0585   -0.5877   -0.1076 H   0  0  0  0  0  0  0  0  0  0  0  0
   -7.1177   -1.4543    1.4336 H   0  0  0  0  0  0  0  0  0  0  0  0
   -1.7839   -0.7442    0.0144 H   0  0  0  0  0  0  0  0  0  0  0  0
    2.8226   -0.8264    1.0429 H   0  0  0  0  0  0  0  0  0  0  0  0
    5.2167   -3.1809    2.3036 H   0  0  0  0  0  0  0  0  0  0  0  0
    3.8878   -2.8895    1.1766 H   0  0  0  0  0  0  0  0  0  0  0  0
    4.0735   -1.8848    2.6691 H   0  0  0  0  0  0  0  0  0  0  0  0
  1  2  1  0
  2  3  1  0
  3  4  2  0
  4  5  1  0
  5  6  2  0
  6  7  1  0
  7  8  1  0
  8  9  2  0
  8 10  1  0
 10 11  2  0
 11 12  1  0
 12 13  2  0
 13 14  1  0
 14 15  1  0
 15 16  1  0
 16 17  1  0
 17 18  1  0
 18 19  1  0
 19 20  1  0
 20 21  2  0
 20 22  2  0
 14 23  2  0
  6 24  1  0
 24 25  2  0
 25 26  1  0
 26 27  1  0
 25  3  1  0
 23 10  1  0
 20 15  1  0
  1 28  1  0
  1 29  1  0
  1 30  1  0
  4 31  1  0
  5 32  1  0
  7 33  1  0
 11 34  1  0
 12 35  1  0
 13 36  1  0
 16 37  1  0
 16 38  1  0
 17 39  1  0
 17 40  1  0
 18 41  1  0
 18 42  1  0
 19 43  1  0
 19 44  1  0
 23 45  1  0
 24 46  1  0
 27 47  1  0
 27 48  1  0
 27 49  1  0
M  END
$$$$
