
     RDKit          3D

 41 43  0  0  0  0  0  0  0  0999 V2000
    1.7491    0.1456    1.7194 O   0  0  0  0  0  0  0  0  0  0  0  0
    1.9452    0.0336    0.5157 C   0  0  0  0  0  0  0  0  0  0  0  0
    3.0782    0.4217   -0.1776 N   0  0  0  0  0  0  0  0  0  0  0  0
    4.2754    0.9397    0.3611 C   0  0  0  0  0  0  0  0  0  0  0  0
    4.5328    1.0520    1.7283 C   0  0  0  0  0  0  0  0  0  0  0  0
    5.7506    1.5711    2.1806 C   0  0  0  0  0  0  0  0  0  0  0  0
    6.7218    1.9799    1.2702 C   0  0  0  0  0  0  0  0  0  0  0  0
    6.4776    1.8685   -0.0956 C   0  0  0  0  0  0  0  0  0  0  0  0
    5.2610    1.3497   -0.5473 C   0  0  0  0  0  0  0  0  0  0  0  0
    0.8489   -0.5241   -0.3293 C   0  0  0  0  0  0  0  0  0  0  0  0
    1.1127   -1.2723   -1.4851 C   0  0  0  0  0  0  0  0  0  0  0  0
    0.0563   -1.7749   -2.2458 C   0  0  0  0  0  0  0  0  0  0  0  0
   -1.2610   -1.5302   -1.8563 C   0  0  0  0  0  0  0  0  0  0  0  0
   -1.5315   -0.7832   -0.7074 C   0  0  0  0  0  0  0  0  0  0  0  0
   -2.9076   -0.6189   -0.3130 N   0  0  0  0  0  0  0  0  0  0  0  0
   -3.3128    0.7403    0.1293 C   0  0  0  0  0  0  0  0  0  0  0  0
   -4.8322    0.8777    0.0417 C   0  0  0  0  0  0  0  0  0  0  0  0
   -5.5629   -0.1159    0.9449 C   0  0  0  0  0  0  0  0  0  0  0  0
   -5.2362   -1.5590    0.5903 C   0  0  0  0  0  0  0  0  0  0  0  0
   -3.4860   -1.8820    0.6958 S   0  0  0  0  0  6  0  0  0  0  0  0
   -3.2329   -3.1554    0.0548 O   0  0  0  0  0  0  0  0  0  0  0  0
   -3.0520   -1.6192    2.0517 O   0  0  0  0  0  0  0  0  0  0  0  0
   -0.4762   -0.3080    0.0741 C   0  0  0  0  0  0  0  0  0  0  0  0
    3.0323    0.3999   -1.1869 H   0  0  0  0  0  0  0  0  0  0  0  0
    3.8077    0.7390    2.4730 H   0  0  0  0  0  0  0  0  0  0  0  0
    5.9357    1.6525    3.2488 H   0  0  0  0  0  0  0  0  0  0  0  0
    7.6664    2.3823    1.6262 H   0  0  0  0  0  0  0  0  0  0  0  0
    7.2332    2.1848   -0.8098 H   0  0  0  0  0  0  0  0  0  0  0  0
    5.0974    1.2740   -1.6188 H   0  0  0  0  0  0  0  0  0  0  0  0
    2.1302   -1.5106   -1.7830 H   0  0  0  0  0  0  0  0  0  0  0  0
    0.2551   -2.3762   -3.1297 H   0  0  0  0  0  0  0  0  0  0  0  0
   -2.0799   -1.9437   -2.4403 H   0  0  0  0  0  0  0  0  0  0  0  0
   -2.8603    1.4896   -0.5318 H   0  0  0  0  0  0  0  0  0  0  0  0
   -2.9620    0.9447    1.1472 H   0  0  0  0  0  0  0  0  0  0  0  0
   -5.1573    0.7321   -0.9960 H   0  0  0  0  0  0  0  0  0  0  0  0
   -5.1169    1.8970    0.3269 H   0  0  0  0  0  0  0  0  0  0  0  0
   -5.2976    0.0816    1.9905 H   0  0  0  0  0  0  0  0  0  0  0  0
   -6.6438    0.0413    0.8547 H   0  0  0  0  0  0  0  0  0  0  0  0
   -5.7332   -2.2491    1.2789 H   0  0  0  0  0  0  0  0  0  0  0  0
   -5.5543   -1.7994   -0.4294 H   0  0  0  0  0  0  0  0  0  0  0  0
   -0.6709    0.2236    1.0024 H   0  0  0  0  0  0  0  0  0  0  0  0
  1  2  2  0
  2  3  1  0
  3  4  1  0
  4  5  2  0
  5  6  1  0
  6  7  2  0
  7  8  1  0
  8  9  2  0
  2 10  1  0
 10 11  2  0
 11 12  1  0
 12 13  2  0
 13 14  1  0
 14 15  1  0
 15 16  1  0
 16 17  1  0
 17 18  1  0
 18 19  1  0
 19 20  1  0
 20 21  2  0
 20 22  2  0
 14 23  2  0
  9  4  1  0
 23 10  1  0
 20 15  1  0
  3 24  1  0
  5 25  1  0
  6 26  1  0
  7 27  1  0
  8 28  1  0
  9 29  1  0
 11 30  1  0
 12 31  1  0
 13 32  1  0
 16 33  1  0
 16 34  1  0
 17 35  1  0
 17 36  1  0
 18 37  1  0
 18 38  1  0
 19 39  1  0
 19 40  1  0
 23 41  1  0
M  END
$$$$
