
     RDKit          3D

 43 44  0  0  0  0  0  0  0  0999 V2000
   -5.1973    0.0416   -2.0345 C   0  0  0  0  0  0  0  0  0  0  0  0
   -5.4502    0.2773   -0.5471 C   0  0  0  0  0  0  0  0  0  0  0  0
   -6.8651   -0.1442   -0.1649 C   0  0  0  0  0  0  0  0  0  0  0  0
   -4.4780   -0.4483    0.2594 N   0  0  0  0  0  0  0  0  0  0  0  0
   -3.2116    0.0482    0.4882 C   0  0  0  0  0  0  0  0  0  0  0  0
   -2.8364    1.1628    0.1276 O   0  0  0  0  0  0  0  0  0  0  0  0
   -2.3031   -0.9017    1.2669 C   0  0  0  0  0  0  0  0  0  0  0  0
   -0.9629   -0.3503    1.3264 N   0  0  0  0  0  0  0  0  0  0  0  0
    0.0592   -1.0335    1.9367 C   0  0  0  0  0  0  0  0  0  0  0  0
   -0.0898   -2.1537    2.4115 O   0  0  0  0  0  0  0  0  0  0  0  0
    1.3667   -0.2754    1.9742 C   0  0  0  0  0  0  0  0  0  0  0  0
    2.4882   -1.0241    2.6759 C   0  0  0  0  0  0  0  0  0  0  0  0
    3.7310   -0.5612    1.9567 C   0  0  0  0  0  0  0  0  0  0  0  0
    4.8519   -0.7229    2.4147 O   0  0  0  0  0  0  0  0  0  0  0  0
    3.3423    0.0050    0.7348 N   0  0  0  0  0  0  0  0  0  0  0  0
    4.2058    0.4832   -0.2910 C   0  0  0  0  0  0  0  0  0  0  0  0
    5.5878    0.6057   -0.0985 C   0  0  0  0  0  0  0  0  0  0  0  0
    6.4252    1.0814   -1.1152 C   0  0  0  0  0  0  0  0  0  0  0  0
    5.8949    1.4448   -2.3475 C   0  0  0  0  0  0  0  0  0  0  0  0
    4.5266    1.3320   -2.5628 C   0  0  0  0  0  0  0  0  0  0  0  0
    3.6916    0.8564   -1.5446 C   0  0  0  0  0  0  0  0  0  0  0  0
    1.9100   -0.0666    0.5726 C   0  0  0  0  0  0  0  0  0  0  0  0
   -5.9202    0.5920   -2.6455 H   0  0  0  0  0  0  0  0  0  0  0  0
   -5.2760   -1.0221   -2.2857 H   0  0  0  0  0  0  0  0  0  0  0  0
   -4.1933    0.3731   -2.3203 H   0  0  0  0  0  0  0  0  0  0  0  0
   -5.3337    1.3477   -0.3391 H   0  0  0  0  0  0  0  0  0  0  0  0
   -7.6095    0.4178   -0.7385 H   0  0  0  0  0  0  0  0  0  0  0  0
   -7.0490    0.0380    0.8996 H   0  0  0  0  0  0  0  0  0  0  0  0
   -7.0264   -1.2123   -0.3490 H   0  0  0  0  0  0  0  0  0  0  0  0
   -4.6439   -1.4336    0.4264 H   0  0  0  0  0  0  0  0  0  0  0  0
   -2.6815   -1.0160    2.2874 H   0  0  0  0  0  0  0  0  0  0  0  0
   -2.2633   -1.8780    0.7739 H   0  0  0  0  0  0  0  0  0  0  0  0
   -0.8771    0.6370    1.0991 H   0  0  0  0  0  0  0  0  0  0  0  0
    1.2076    0.6897    2.4727 H   0  0  0  0  0  0  0  0  0  0  0  0
    2.5402   -0.7555    3.7350 H   0  0  0  0  0  0  0  0  0  0  0  0
    2.4167   -2.1119    2.5776 H   0  0  0  0  0  0  0  0  0  0  0  0
    6.0572    0.3460    0.8453 H   0  0  0  0  0  0  0  0  0  0  0  0
    7.4940    1.1653   -0.9349 H   0  0  0  0  0  0  0  0  0  0  0  0
    6.5461    1.8126   -3.1356 H   0  0  0  0  0  0  0  0  0  0  0  0
    4.1040    1.6105   -3.5249 H   0  0  0  0  0  0  0  0  0  0  0  0
    2.6333    0.7768   -1.7720 H   0  0  0  0  0  0  0  0  0  0  0  0
    1.6714   -0.9001   -0.0991 H   0  0  0  0  0  0  0  0  0  0  0  0
    1.5164    0.8662    0.1543 H   0  0  0  0  0  0  0  0  0  0  0  0
  1  2  1  0
  2  3  1  0
  2  4  1  0
  4  5  1  0
  5  6  2  0
  5  7  1  0
  7  8  1  0
  8  9  1  0
  9 10  2  0
  9 11  1  0
 11 12  1  0
 12 13  1  0
 13 14  2  0
 13 15  1  0
 15 16  1  0
 16 17  2  0
 17 18  1  0
 18 19  2  0
 19 20  1  0
 20 21  2  0
 15 22  1  0
 22 11  1  0
 21 16  1  0
  1 23  1  0
  1 24  1  0
  1 25  1  0
  2 26  1  0
  3 27  1  0
  3 28  1  0
  3 29  1  0
  4 30  1  0
  7 31  1  0
  7 32  1  0
  8 33  1  0
 11 34  1  0
 12 35  1  0
 12 36  1  0
 17 37  1  0
 18 38  1  0
 19 39  1  0
 20 40  1  0
 21 41  1  0
 22 42  1  0
 22 43  1  0
M  END
$$$$
