
     RDKit          3D

 39 42  0  0  0  0  0  0  0  0999 V2000
   -3.3150   -1.5243   -2.5514 C   0  0  0  0  0  0  0  0  0  0  0  0
   -3.3310   -0.4060   -1.5867 C   0  0  0  0  0  0  0  0  0  0  0  0
   -4.4993    0.1825   -1.1661 N   0  0  0  0  0  0  0  0  0  0  0  0
   -4.0844    1.1155   -0.3498 C   0  0  0  0  0  0  0  0  0  0  0  0
   -2.7270    1.0618   -0.2477 N   0  0  0  0  0  0  0  0  0  0  0  0
   -2.2103    0.1438   -1.0905 N   0  0  0  0  0  0  0  0  0  0  0  0
   -1.9404    2.0743    0.4330 C   0  0  0  0  0  0  0  0  0  0  0  0
   -0.6575    1.5238    1.0653 C   0  0  0  0  0  0  0  0  0  0  0  0
   -0.3126    1.8861    2.1895 O   0  0  0  0  0  0  0  0  0  0  0  0
    0.0849    0.6970    0.2404 N   0  0  0  0  0  0  0  0  0  0  0  0
    1.3453    0.1179    0.4906 C   0  0  0  0  0  0  0  0  0  0  0  0
    2.1375    0.4152    1.6025 C   0  0  0  0  0  0  0  0  0  0  0  0
    3.3845   -0.1978    1.7709 C   0  0  0  0  0  0  0  0  0  0  0  0
    3.8486   -1.1067    0.8254 C   0  0  0  0  0  0  0  0  0  0  0  0
    3.0539   -1.4268   -0.2770 C   0  0  0  0  0  0  0  0  0  0  0  0
    1.8166   -0.8059   -0.4516 C   0  0  0  0  0  0  0  0  0  0  0  0
    3.4279   -2.3358   -1.2343 O   0  0  0  0  0  0  0  0  0  0  0  0
    4.5186   -3.1472   -0.7826 C   0  0  0  0  0  0  0  0  0  0  0  0
    5.5922   -2.2898   -0.1332 C   0  0  0  0  0  0  0  0  0  0  0  0
    5.0871   -1.6513    1.0448 O   0  0  0  0  0  0  0  0  0  0  0  0
   -2.7951    2.7671    1.4987 C   0  0  0  0  0  0  0  0  0  0  0  0
   -4.2347    3.0038    1.0855 C   0  0  0  0  0  0  0  0  0  0  0  0
   -4.8836    3.9474    1.5309 O   0  0  0  0  0  0  0  0  0  0  0  0
   -4.8197    2.0764    0.2720 N   0  0  0  0  0  0  0  0  0  0  0  0
   -3.2163   -1.1425   -3.5719 H   0  0  0  0  0  0  0  0  0  0  0  0
   -4.2427   -2.1015   -2.4882 H   0  0  0  0  0  0  0  0  0  0  0  0
   -2.4797   -2.2030   -2.3529 H   0  0  0  0  0  0  0  0  0  0  0  0
   -1.6528    2.7994   -0.3393 H   0  0  0  0  0  0  0  0  0  0  0  0
   -0.3999    0.3568   -0.5950 H   0  0  0  0  0  0  0  0  0  0  0  0
    1.8201    1.1262    2.3588 H   0  0  0  0  0  0  0  0  0  0  0  0
    3.9938    0.0448    2.6375 H   0  0  0  0  0  0  0  0  0  0  0  0
    1.2222   -1.0648   -1.3239 H   0  0  0  0  0  0  0  0  0  0  0  0
    4.1286   -3.9003   -0.0861 H   0  0  0  0  0  0  0  0  0  0  0  0
    4.9264   -3.6685   -1.6542 H   0  0  0  0  0  0  0  0  0  0  0  0
    6.4431   -2.9105    0.1648 H   0  0  0  0  0  0  0  0  0  0  0  0
    5.9569   -1.5152   -0.8191 H   0  0  0  0  0  0  0  0  0  0  0  0
   -2.3441    3.7329    1.7574 H   0  0  0  0  0  0  0  0  0  0  0  0
   -2.8377    2.1695    2.4192 H   0  0  0  0  0  0  0  0  0  0  0  0
   -5.8047    2.1557    0.0544 H   0  0  0  0  0  0  0  0  0  0  0  0
  1  2  1  0
  2  3  1  0
  3  4  2  0
  4  5  1  0
  5  6  1  0
  5  7  1  0
  7  8  1  0
  8  9  2  0
  8 10  1  0
 10 11  1  0
 11 12  2  0
 12 13  1  0
 13 14  2  0
 14 15  1  0
 15 16  2  0
 15 17  1  0
 17 18  1  0
 18 19  1  0
 19 20  1  0
  7 21  1  0
 21 22  1  0
 22 23  2  0
 22 24  1  0
  6  2  2  0
 16 11  1  0
 24  4  1  0
 20 14  1  0
  1 25  1  0
  1 26  1  0
  1 27  1  0
  7 28  1  0
 10 29  1  0
 12 30  1  0
 13 31  1  0
 16 32  1  0
 18 33  1  0
 18 34  1  0
 19 35  1  0
 19 36  1  0
 21 37  1  0
 21 38  1  0
 24 39  1  0
M  END
$$$$
