
     RDKit          3D

 48 50  0  0  0  0  0  0  0  0999 V2000
    4.3447    0.4223   -0.9825 N   0  0  0  0  0  0  0  0  0  0  0  0
    4.8064   -0.8582   -0.9963 C   0  0  0  0  0  0  0  0  0  0  0  0
    5.6168   -1.2147   -1.8460 O   0  0  0  0  0  0  0  0  0  0  0  0
    4.2367   -1.8149    0.0466 C   0  0  0  0  0  0  0  0  0  0  0  0
    2.7958   -2.2094   -0.2931 C   0  0  0  0  0  0  0  0  0  0  0  0
    1.7844   -1.0970   -0.0126 C   0  0  0  0  0  0  0  0  0  0  0  0
    2.1362   -0.2932    1.1626 N   0  0  0  0  0  0  0  0  0  0  0  0
    1.6406    0.9826    1.4264 C   0  0  0  0  0  0  0  0  0  0  0  0
    2.0798    1.7140    2.3092 O   0  0  0  0  0  0  0  0  0  0  0  0
    0.5555    1.5192    0.5783 C   0  0  0  0  0  0  0  0  0  0  0  0
    0.7529    2.7361   -0.0829 C   0  0  0  0  0  0  0  0  0  0  0  0
   -0.2635    3.2624   -0.8824 C   0  0  0  0  0  0  0  0  0  0  0  0
   -1.4725    2.5729   -1.0177 C   0  0  0  0  0  0  0  0  0  0  0  0
   -2.7035    3.2661   -2.0119 Cl  0  0  0  0  0  0  0  0  0  0  0  0
   -1.6744    1.3578   -0.3424 C   0  0  0  0  0  0  0  0  0  0  0  0
   -2.9139    0.6411   -0.4963 N   0  0  0  0  0  0  0  0  0  0  0  0
   -3.8218    0.5982    0.6626 C   0  0  0  0  0  0  0  0  0  0  0  0
   -5.2681    0.5080    0.1642 C   0  0  0  0  0  0  0  0  0  0  0  0
   -5.4299   -0.0749   -1.2465 C   0  0  0  0  0  0  0  0  0  0  0  0
   -4.5191   -1.2651   -1.5065 C   0  0  0  0  0  0  0  0  0  0  0  0
   -2.7886   -0.8278   -1.3518 S   0  0  0  0  0  6  0  0  0  0  0  0
   -2.1563   -1.7955   -0.4770 O   0  0  0  0  0  0  0  0  0  0  0  0
   -2.2465   -0.5447   -2.6628 O   0  0  0  0  0  0  0  0  0  0  0  0
   -0.6655    0.8467    0.4795 C   0  0  0  0  0  0  0  0  0  0  0  0
    3.0393   -0.9153    2.1216 C   0  0  0  0  0  0  0  0  0  0  0  0
    4.3783   -1.2659    1.4775 C   0  0  0  0  0  0  0  0  0  0  0  0
    3.8847    0.8053   -0.1652 H   0  0  0  0  0  0  0  0  0  0  0  0
    4.8006    1.0710   -1.6118 H   0  0  0  0  0  0  0  0  0  0  0  0
    4.8595   -2.7175   -0.0221 H   0  0  0  0  0  0  0  0  0  0  0  0
    2.5289   -3.0823    0.3164 H   0  0  0  0  0  0  0  0  0  0  0  0
    2.7077   -2.5261   -1.3393 H   0  0  0  0  0  0  0  0  0  0  0  0
    0.8021   -1.5482    0.1631 H   0  0  0  0  0  0  0  0  0  0  0  0
    1.6937   -0.4388   -0.8825 H   0  0  0  0  0  0  0  0  0  0  0  0
    1.6935    3.2721    0.0250 H   0  0  0  0  0  0  0  0  0  0  0  0
   -0.1088    4.2067   -1.3973 H   0  0  0  0  0  0  0  0  0  0  0  0
   -3.7122    1.4937    1.2848 H   0  0  0  0  0  0  0  0  0  0  0  0
   -3.5791   -0.2588    1.3023 H   0  0  0  0  0  0  0  0  0  0  0  0
   -5.7146    1.5109    0.1687 H   0  0  0  0  0  0  0  0  0  0  0  0
   -5.8501   -0.0851    0.8798 H   0  0  0  0  0  0  0  0  0  0  0  0
   -5.2194    0.7096   -1.9848 H   0  0  0  0  0  0  0  0  0  0  0  0
   -6.4744   -0.3695   -1.3965 H   0  0  0  0  0  0  0  0  0  0  0  0
   -4.7218   -2.0638   -0.7860 H   0  0  0  0  0  0  0  0  0  0  0  0
   -4.6695   -1.6576   -2.5165 H   0  0  0  0  0  0  0  0  0  0  0  0
   -0.8200   -0.0758    1.0333 H   0  0  0  0  0  0  0  0  0  0  0  0
    2.5432   -1.8205    2.4909 H   0  0  0  0  0  0  0  0  0  0  0  0
    3.2053   -0.2739    2.9934 H   0  0  0  0  0  0  0  0  0  0  0  0
    4.8730   -2.0151    2.1075 H   0  0  0  0  0  0  0  0  0  0  0  0
    5.0343   -0.3870    1.4946 H   0  0  0  0  0  0  0  0  0  0  0  0
  1  2  1  0
  2  3  2  0
  2  4  1  0
  4  5  1  0
  5  6  1  0
  6  7  1  0
  7  8  1  0
  8  9  2  0
  8 10  1  0
 10 11  2  0
 11 12  1  0
 12 13  2  0
 13 14  1  0
 13 15  1  0
 15 16  1  0
 16 17  1  0
 17 18  1  0
 18 19  1  0
 19 20  1  0
 20 21  1  0
 21 22  2  0
 21 23  2  0
 15 24  2  0
  7 25  1  0
 25 26  1  0
 26  4  1  0
 24 10  1  0
 21 16  1  0
  1 27  1  0
  1 28  1  0
  4 29  1  0
  5 30  1  0
  5 31  1  0
  6 32  1  0
  6 33  1  0
 11 34  1  0
 12 35  1  0
 17 36  1  0
 17 37  1  0
 18 38  1  0
 18 39  1  0
 19 40  1  0
 19 41  1  0
 20 42  1  0
 20 43  1  0
 24 44  1  0
 25 45  1  0
 25 46  1  0
 26 47  1  0
 26 48  1  0
M  END
$$$$
