
     RDKit          3D

 56 59  0  0  0  0  0  0  0  0999 V2000
    1.7592   -1.6710   -1.1461 O   0  0  0  0  0  0  0  0  0  0  0  0
    1.9863   -1.2772   -0.0081 C   0  0  0  0  0  0  0  0  0  0  0  0
    1.2261   -0.3080    0.6164 N   0  0  0  0  0  0  0  0  0  0  0  0
   -0.0373    0.1184    0.0281 C   0  0  0  0  0  0  0  0  0  0  0  0
   -1.1917   -0.5798    0.7619 C   0  0  0  0  0  0  0  0  0  0  0  0
   -0.9836   -1.1615    1.8327 O   0  0  0  0  0  0  0  0  0  0  0  0
   -2.4601   -0.4980    0.1983 N   0  0  0  0  0  0  0  0  0  0  0  0
   -2.8269    0.5068   -0.8154 C   0  0  0  0  0  0  0  0  0  0  0  0
   -4.0514    0.0910   -1.6550 C   0  0  0  0  0  0  0  0  0  0  0  0
   -5.1835   -0.2855   -0.7786 N   0  0  0  0  0  0  0  0  0  0  0  0
   -6.0404    0.7374   -0.3652 C   0  0  0  0  0  0  0  0  0  0  0  0
   -6.5600    1.6500   -1.3013 C   0  0  0  0  0  0  0  0  0  0  0  0
   -7.4273    2.6859   -0.9335 C   0  0  0  0  0  0  0  0  0  0  0  0
   -7.8141    2.8297    0.3918 C   0  0  0  0  0  0  0  0  0  0  0  0
   -7.3431    1.9290    1.3384 C   0  0  0  0  0  0  0  0  0  0  0  0
   -6.4770    0.8939    0.9595 C   0  0  0  0  0  0  0  0  0  0  0  0
   -4.8148   -1.3842    0.1388 C   0  0  0  0  0  0  0  0  0  0  0  0
   -3.5819   -1.0264    0.9896 C   0  0  0  0  0  0  0  0  0  0  0  0
    3.1308   -1.7990    0.8479 C   0  0  0  0  0  0  0  0  0  0  0  0
    3.8626   -2.9641    0.2020 C   0  0  0  0  0  0  0  0  0  0  0  0
    5.0300   -2.3179   -0.5050 C   0  0  0  0  0  0  0  0  0  0  0  0
    5.7165   -2.9178   -1.3187 O   0  0  0  0  0  0  0  0  0  0  0  0
    5.1882   -1.0213    0.0050 N   0  0  0  0  0  0  0  0  0  0  0  0
    6.2283   -0.1057   -0.3239 C   0  0  0  0  0  0  0  0  0  0  0  0
    7.1186   -0.3443   -1.3785 C   0  0  0  0  0  0  0  0  0  0  0  0
    8.1353    0.5657   -1.6938 C   0  0  0  0  0  0  0  0  0  0  0  0
    8.2812    1.7360   -0.9581 C   0  0  0  0  0  0  0  0  0  0  0  0
    7.4096    1.9959    0.0927 C   0  0  0  0  0  0  0  0  0  0  0  0
    6.3936    1.0845    0.4050 C   0  0  0  0  0  0  0  0  0  0  0  0
    4.2063   -0.7445    1.0280 C   0  0  0  0  0  0  0  0  0  0  0  0
    1.2202   -0.3217    1.6311 H   0  0  0  0  0  0  0  0  0  0  0  0
   -0.1235    1.1971    0.1853 H   0  0  0  0  0  0  0  0  0  0  0  0
   -0.0583   -0.1187   -1.0378 H   0  0  0  0  0  0  0  0  0  0  0  0
   -3.0336    1.4386   -0.2752 H   0  0  0  0  0  0  0  0  0  0  0  0
   -1.9873    0.6998   -1.4870 H   0  0  0  0  0  0  0  0  0  0  0  0
   -4.2947    0.8848   -2.3676 H   0  0  0  0  0  0  0  0  0  0  0  0
   -3.7853   -0.7860   -2.2595 H   0  0  0  0  0  0  0  0  0  0  0  0
   -6.3259    1.5436   -2.3573 H   0  0  0  0  0  0  0  0  0  0  0  0
   -7.8087    3.3662   -1.6901 H   0  0  0  0  0  0  0  0  0  0  0  0
   -8.4906    3.6283    0.6828 H   0  0  0  0  0  0  0  0  0  0  0  0
   -7.6511    2.0220    2.3766 H   0  0  0  0  0  0  0  0  0  0  0  0
   -6.1493    0.2215    1.7450 H   0  0  0  0  0  0  0  0  0  0  0  0
   -5.6553   -1.6992    0.7672 H   0  0  0  0  0  0  0  0  0  0  0  0
   -4.5664   -2.2588   -0.4769 H   0  0  0  0  0  0  0  0  0  0  0  0
   -3.2592   -1.9156    1.5428 H   0  0  0  0  0  0  0  0  0  0  0  0
   -3.8309   -0.2573    1.7298 H   0  0  0  0  0  0  0  0  0  0  0  0
    2.6977   -2.1022    1.8088 H   0  0  0  0  0  0  0  0  0  0  0  0
    4.2657   -3.6406    0.9635 H   0  0  0  0  0  0  0  0  0  0  0  0
    3.2548   -3.5351   -0.5046 H   0  0  0  0  0  0  0  0  0  0  0  0
    7.0441   -1.2340   -1.9962 H   0  0  0  0  0  0  0  0  0  0  0  0
    8.8095    0.3520   -2.5193 H   0  0  0  0  0  0  0  0  0  0  0  0
    9.0709    2.4405   -1.2037 H   0  0  0  0  0  0  0  0  0  0  0  0
    7.5183    2.9074    0.6746 H   0  0  0  0  0  0  0  0  0  0  0  0
    5.7496    1.3320    1.2426 H   0  0  0  0  0  0  0  0  0  0  0  0
    3.8164    0.2729    0.9251 H   0  0  0  0  0  0  0  0  0  0  0  0
    4.6934   -0.8557    2.0039 H   0  0  0  0  0  0  0  0  0  0  0  0
  1  2  2  0
  2  3  1  0
  3  4  1  0
  4  5  1  0
  5  6  2  0
  5  7  1  0
  7  8  1  0
  8  9  1  0
  9 10  1  0
 10 11  1  0
 11 12  2  0
 12 13  1  0
 13 14  2  0
 14 15  1  0
 15 16  2  0
 10 17  1  0
 17 18  1  0
  2 19  1  0
 19 20  1  0
 20 21  1  0
 21 22  2  0
 21 23  1  0
 23 24  1  0
 24 25  2  0
 25 26  1  0
 26 27  2  0
 27 28  1  0
 28 29  2  0
 23 30  1  0
 18  7  1  0
 30 19  1  0
 16 11  1  0
 29 24  1  0
  3 31  1  0
  4 32  1  0
  4 33  1  0
  8 34  1  0
  8 35  1  0
  9 36  1  0
  9 37  1  0
 12 38  1  0
 13 39  1  0
 14 40  1  0
 15 41  1  0
 16 42  1  0
 17 43  1  0
 17 44  1  0
 18 45  1  0
 18 46  1  0
 19 47  1  0
 20 48  1  0
 20 49  1  0
 25 50  1  0
 26 51  1  0
 27 52  1  0
 28 53  1  0
 29 54  1  0
 30 55  1  0
 30 56  1  0
M  END
$$$$
