
     RDKit          3D

 43 46  0  0  0  0  0  0  0  0999 V2000
    1.3474   -0.6452   -1.3776 O   0  0  0  0  0  0  0  0  0  0  0  0
    1.8093   -0.0952   -0.3866 C   0  0  0  0  0  0  0  0  0  0  0  0
    1.2125    0.9118    0.3440 N   0  0  0  0  0  0  0  0  0  0  0  0
   -0.0638    1.4424    0.1538 C   0  0  0  0  0  0  0  0  0  0  0  0
   -1.2078    0.7485   -0.0528 C   0  0  0  0  0  0  0  0  0  0  0  0
   -1.3735   -0.6403   -0.0276 N   0  0  0  0  0  0  0  0  0  0  0  0
   -1.5356   -1.4401   -1.2555 C   0  0  0  0  0  0  0  0  0  0  0  0
   -1.0430   -2.8358   -0.8813 C   0  0  0  0  0  0  0  0  0  0  0  0
   -1.3086   -2.9043    0.6117 C   0  0  0  0  0  0  0  0  0  0  0  0
   -0.9440   -1.4999    1.0769 C   0  0  0  0  0  0  0  0  0  0  0  0
   -2.4611    1.5343   -0.2229 C   0  0  0  0  0  0  0  0  0  0  0  0
   -3.7342    0.9480   -0.3235 C   0  0  0  0  0  0  0  0  0  0  0  0
   -4.8863    1.7237   -0.5048 C   0  0  0  0  0  0  0  0  0  0  0  0
   -4.7912    3.1098   -0.5757 C   0  0  0  0  0  0  0  0  0  0  0  0
   -3.5472    3.7165   -0.4462 C   0  0  0  0  0  0  0  0  0  0  0  0
   -2.4089    2.9251   -0.2617 C   0  0  0  0  0  0  0  0  0  0  0  0
   -1.2124    3.6215   -0.0659 O   0  0  0  0  0  0  0  0  0  0  0  0
   -0.0678    2.9334    0.2616 C   0  0  0  0  0  0  0  0  0  0  0  0
    0.9600    3.5215    0.6041 O   0  0  0  0  0  0  0  0  0  0  0  0
    3.1898   -0.4564    0.0514 C   0  0  0  0  0  0  0  0  0  0  0  0
    4.0664   -1.0248   -0.8859 C   0  0  0  0  0  0  0  0  0  0  0  0
    5.3638   -1.3858   -0.5138 C   0  0  0  0  0  0  0  0  0  0  0  0
    5.7866   -1.1887    0.7990 C   0  0  0  0  0  0  0  0  0  0  0  0
    4.9088   -0.6390    1.7274 C   0  0  0  0  0  0  0  0  0  0  0  0
    5.3144   -0.4644    2.9918 F   0  0  0  0  0  0  0  0  0  0  0  0
    3.6150   -0.2727    1.3718 C   0  0  0  0  0  0  0  0  0  0  0  0
    1.8662    1.6026    0.7136 H   0  0  0  0  0  0  0  0  0  0  0  0
   -2.5942   -1.4868   -1.5311 H   0  0  0  0  0  0  0  0  0  0  0  0
   -0.9858   -1.0312   -2.1084 H   0  0  0  0  0  0  0  0  0  0  0  0
   -1.5569   -3.6229   -1.4404 H   0  0  0  0  0  0  0  0  0  0  0  0
    0.0314   -2.9284   -1.0753 H   0  0  0  0  0  0  0  0  0  0  0  0
   -2.3715   -3.1014    0.7962 H   0  0  0  0  0  0  0  0  0  0  0  0
   -0.7217   -3.6783    1.1136 H   0  0  0  0  0  0  0  0  0  0  0  0
   -1.4639   -1.2441    2.0058 H   0  0  0  0  0  0  0  0  0  0  0  0
    0.1333   -1.4321    1.2508 H   0  0  0  0  0  0  0  0  0  0  0  0
   -3.8523   -0.1293   -0.2482 H   0  0  0  0  0  0  0  0  0  0  0  0
   -5.8562    1.2390   -0.5852 H   0  0  0  0  0  0  0  0  0  0  0  0
   -5.6836    3.7139   -0.7152 H   0  0  0  0  0  0  0  0  0  0  0  0
   -3.4616    4.7992   -0.4739 H   0  0  0  0  0  0  0  0  0  0  0  0
    3.7388   -1.1854   -1.9122 H   0  0  0  0  0  0  0  0  0  0  0  0
    6.0389   -1.8215   -1.2465 H   0  0  0  0  0  0  0  0  0  0  0  0
    6.7904   -1.4654    1.1066 H   0  0  0  0  0  0  0  0  0  0  0  0
    2.9601    0.1279    2.1384 H   0  0  0  0  0  0  0  0  0  0  0  0
  1  2  2  0
  2  3  1  0
  3  4  1  0
  4  5  2  0
  5  6  1  0
  6  7  1  0
  7  8  1  0
  8  9  1  0
  9 10  1  0
  5 11  1  0
 11 12  2  0
 12 13  1  0
 13 14  2  0
 14 15  1  0
 15 16  2  0
 16 17  1  0
 17 18  1  0
 18 19  2  0
  2 20  1  0
 20 21  2  0
 21 22  1  0
 22 23  2  0
 23 24  1  0
 24 25  1  0
 24 26  2  0
 18  4  1  0
 26 20  1  0
 10  6  1  0
 16 11  1  0
  3 27  1  0
  7 28  1  0
  7 29  1  0
  8 30  1  0
  8 31  1  0
  9 32  1  0
  9 33  1  0
 10 34  1  0
 10 35  1  0
 12 36  1  0
 13 37  1  0
 14 38  1  0
 15 39  1  0
 21 40  1  0
 22 41  1  0
 23 42  1  0
 26 43  1  0
M  END
$$$$
