
     RDKit          3D

 64 68  0  0  0  0  0  0  0  0999 V2000
   -3.5275   -1.3118    0.0940 C   0  0  0  0  0  0  0  0  0  0  0  0
   -4.7002   -0.4754   -0.1618 N   0  0  0  0  0  0  0  0  0  0  0  0
   -5.0812   -0.1224   -1.4691 C   0  0  0  0  0  0  0  0  0  0  0  0
   -6.1675    0.3979   -1.7547 O   0  0  0  0  0  0  0  0  0  0  0  0
   -4.1313   -0.4555   -2.6372 C   0  0  0  0  0  0  0  0  0  0  0  0
   -2.9282    0.3794   -2.7537 N   0  0  0  0  0  0  0  0  0  0  0  0
   -1.6831   -0.2636   -2.7664 C   0  0  0  0  0  0  0  0  0  0  0  0
   -1.5978   -1.4937   -2.6833 O   0  0  0  0  0  0  0  0  0  0  0  0
   -0.5362    0.5347   -2.8539 N   0  0  0  0  0  0  0  0  0  0  0  0
    0.7581   -0.1366   -2.7528 C   0  0  0  0  0  0  0  0  0  0  0  0
    1.1684   -0.3249   -1.2907 C   0  0  0  0  0  0  0  0  0  0  0  0
    2.4935   -1.0743   -1.1719 C   0  0  0  0  0  0  0  0  0  0  0  0
    2.8403   -1.3807    0.2734 C   0  0  0  0  0  0  0  0  0  0  0  0
    2.1476   -1.0338    1.2229 O   0  0  0  0  0  0  0  0  0  0  0  0
    4.0075   -2.0974    0.4045 N   0  0  0  0  0  0  0  0  0  0  0  0
    4.5542   -2.4456    1.6966 C   0  0  0  0  0  0  0  0  0  0  0  0
    5.7969   -1.6432    1.9847 C   0  0  0  0  0  0  0  0  0  0  0  0
    7.0777   -2.2229    1.8360 C   0  0  0  0  0  0  0  0  0  0  0  0
    8.2374   -1.4831    2.0902 C   0  0  0  0  0  0  0  0  0  0  0  0
    8.0877   -0.1718    2.4840 C   0  0  0  0  0  0  0  0  0  0  0  0
    6.8471    0.4024    2.6294 C   0  0  0  0  0  0  0  0  0  0  0  0
    5.6865   -0.3017    2.3876 C   0  0  0  0  0  0  0  0  0  0  0  0
    6.9182    1.6995    3.0314 O   0  0  0  0  0  0  0  0  0  0  0  0
    8.3481    1.8848    3.0912 C   0  0  0  0  0  0  0  0  0  0  0  0
    9.0965    0.6931    2.7739 O   0  0  0  0  0  0  0  0  0  0  0  0
   -0.5292    1.9308   -2.9422 C   0  0  0  0  0  0  0  0  0  0  0  0
    0.5115    2.5870   -2.9504 O   0  0  0  0  0  0  0  0  0  0  0  0
   -1.8451    2.4998   -3.0218 C   0  0  0  0  0  0  0  0  0  0  0  0
   -2.1201    4.1624   -3.2253 S   0  0  0  0  0  0  0  0  0  0  0  0
   -3.8151    3.9255   -3.2286 C   0  0  0  0  0  0  0  0  0  0  0  0
   -4.1506    2.5965   -3.0676 C   0  0  0  0  0  0  0  0  0  0  0  0
   -2.9982    1.7642   -2.9364 C   0  0  0  0  0  0  0  0  0  0  0  0
   -5.5658   -0.1971    0.9600 C   0  0  0  0  0  0  0  0  0  0  0  0
   -5.5937   -1.0432    2.0821 C   0  0  0  0  0  0  0  0  0  0  0  0
   -6.4247   -0.7761    3.1782 C   0  0  0  0  0  0  0  0  0  0  0  0
   -7.2358    0.3522    3.1807 C   0  0  0  0  0  0  0  0  0  0  0  0
   -7.2214    1.2050    2.0846 C   0  0  0  0  0  0  0  0  0  0  0  0
   -6.3914    0.9348    0.9874 C   0  0  0  0  0  0  0  0  0  0  0  0
   -3.1881   -1.2351    1.1296 H   0  0  0  0  0  0  0  0  0  0  0  0
   -3.7739   -2.3488   -0.1543 H   0  0  0  0  0  0  0  0  0  0  0  0
   -2.6876   -0.9849   -0.5106 H   0  0  0  0  0  0  0  0  0  0  0  0
   -3.8888   -1.5222   -2.5807 H   0  0  0  0  0  0  0  0  0  0  0  0
   -4.6908   -0.3388   -3.5729 H   0  0  0  0  0  0  0  0  0  0  0  0
    0.6981   -1.1096   -3.2548 H   0  0  0  0  0  0  0  0  0  0  0  0
    1.5233    0.4437   -3.2810 H   0  0  0  0  0  0  0  0  0  0  0  0
    0.3810   -0.8736   -0.7535 H   0  0  0  0  0  0  0  0  0  0  0  0
    1.2520    0.6527   -0.7941 H   0  0  0  0  0  0  0  0  0  0  0  0
    2.4330   -2.0225   -1.7195 H   0  0  0  0  0  0  0  0  0  0  0  0
    3.3045   -0.4740   -1.6020 H   0  0  0  0  0  0  0  0  0  0  0  0
    4.5901   -2.2531   -0.4071 H   0  0  0  0  0  0  0  0  0  0  0  0
    3.8165   -2.2985    2.4938 H   0  0  0  0  0  0  0  0  0  0  0  0
    4.7889   -3.5155    1.6682 H   0  0  0  0  0  0  0  0  0  0  0  0
    7.1746   -3.2613    1.5252 H   0  0  0  0  0  0  0  0  0  0  0  0
    9.2198   -1.9275    1.9841 H   0  0  0  0  0  0  0  0  0  0  0  0
    4.7146    0.1708    2.5116 H   0  0  0  0  0  0  0  0  0  0  0  0
    8.6284    2.6748    2.3842 H   0  0  0  0  0  0  0  0  0  0  0  0
    8.6170    2.2061    4.1046 H   0  0  0  0  0  0  0  0  0  0  0  0
   -4.4831    4.7687   -3.3452 H   0  0  0  0  0  0  0  0  0  0  0  0
   -5.1824    2.2657   -3.0547 H   0  0  0  0  0  0  0  0  0  0  0  0
   -5.0069   -1.9538    2.1202 H   0  0  0  0  0  0  0  0  0  0  0  0
   -6.4413   -1.4544    4.0260 H   0  0  0  0  0  0  0  0  0  0  0  0
   -7.8821    0.5597    4.0317 H   0  0  0  0  0  0  0  0  0  0  0  0
   -7.8565    2.0890    2.0749 H   0  0  0  0  0  0  0  0  0  0  0  0
   -6.3940    1.6501    0.1711 H   0  0  0  0  0  0  0  0  0  0  0  0
  1  2  1  0
  2  3  1  0
  3  4  2  0
  3  5  1  0
  5  6  1  0
  6  7  1  0
  7  8  2  0
  7  9  1  0
  9 10  1  0
 10 11  1  0
 11 12  1  0
 12 13  1  0
 13 14  2  0
 13 15  1  0
 15 16  1  0
 16 17  1  0
 17 18  2  0
 18 19  1  0
 19 20  2  0
 20 21  1  0
 21 22  2  0
 21 23  1  0
 23 24  1  0
 24 25  1  0
  9 26  1  0
 26 27  2  0
 26 28  1  0
 28 29  1  0
 29 30  1  0
 30 31  2  0
 31 32  1  0
  2 33  1  0
 33 34  2  0
 34 35  1  0
 35 36  2  0
 36 37  1  0
 37 38  2  0
 32  6  1  0
 38 33  1  0
 22 17  1  0
 32 28  2  0
 25 20  1  0
  1 39  1  0
  1 40  1  0
  1 41  1  0
  5 42  1  0
  5 43  1  0
 10 44  1  0
 10 45  1  0
 11 46  1  0
 11 47  1  0
 12 48  1  0
 12 49  1  0
 15 50  1  0
 16 51  1  0
 16 52  1  0
 18 53  1  0
 19 54  1  0
 22 55  1  0
 24 56  1  0
 24 57  1  0
 30 58  1  0
 31 59  1  0
 34 60  1  0
 35 61  1  0
 36 62  1  0
 37 63  1  0
 38 64  1  0
M  END
$$$$
