
     RDKit          3D

 63 65  0  0  0  0  0  0  0  0999 V2000
   -7.3911   -0.7881    1.3469 C   0  0  0  0  0  0  0  0  0  0  0  0
   -6.1226   -1.2381    0.6320 C   0  0  0  0  0  0  0  0  0  0  0  0
   -5.4220   -0.1337   -0.0556 N   0  0  0  0  0  0  0  0  0  0  0  0
   -4.6483    0.8015    0.7779 C   0  0  0  0  0  0  0  0  0  0  0  0
   -3.3557    0.1601    1.2878 C   0  0  0  0  0  0  0  0  0  0  0  0
   -2.4058   -0.1821    0.1419 C   0  0  0  0  0  0  0  0  0  0  0  0
   -1.1635   -0.7575    0.6263 N   0  0  0  0  0  0  0  0  0  0  0  0
   -0.1556    0.0205    1.1502 C   0  0  0  0  0  0  0  0  0  0  0  0
   -0.2041    1.2427    1.2185 O   0  0  0  0  0  0  0  0  0  0  0  0
    1.0374   -0.7859    1.6028 C   0  0  0  0  0  0  0  0  0  0  0  0
    2.0218    0.0794    2.3663 C   0  0  0  0  0  0  0  0  0  0  0  0
    3.4179   -0.8355    2.9730 S   0  0  0  0  0  6  0  0  0  0  0  0
    4.2275    0.0775    3.7601 O   0  0  0  0  0  0  0  0  0  0  0  0
    2.9356   -2.0524    3.5938 O   0  0  0  0  0  0  0  0  0  0  0  0
    4.3652   -1.2276    1.5116 C   0  0  0  0  0  0  0  0  0  0  0  0
    5.2435   -0.2153    1.0685 C   0  0  0  0  0  0  0  0  0  0  0  0
    6.0391   -0.4474   -0.0396 C   0  0  0  0  0  0  0  0  0  0  0  0
    5.9890   -1.6692   -0.7009 C   0  0  0  0  0  0  0  0  0  0  0  0
    5.1317   -2.6760   -0.2832 C   0  0  0  0  0  0  0  0  0  0  0  0
    4.3073   -2.4594    0.8337 C   0  0  0  0  0  0  0  0  0  0  0  0
    3.1471   -3.9047    1.2481 Br  0  0  0  0  0  0  0  0  0  0  0  0
    6.9206   -1.6999   -1.8696 C   0  0  0  0  0  0  0  0  0  0  0  0
    7.6287   -0.3449   -1.7484 C   0  0  0  0  0  0  0  0  0  0  0  0
    6.9725    0.4012   -0.6610 N   0  0  0  0  0  0  0  0  0  0  0  0
    7.2422    1.7098   -0.3014 C   0  0  0  0  0  0  0  0  0  0  0  0
    8.3423    2.3837   -1.0861 C   0  0  0  0  0  0  0  0  0  0  0  0
    6.6500    2.3339    0.5774 O   0  0  0  0  0  0  0  0  0  0  0  0
   -6.1136    0.3862   -1.1622 C   0  0  0  0  0  0  0  0  0  0  0  0
   -6.5787    1.7082   -1.2251 C   0  0  0  0  0  0  0  0  0  0  0  0
   -7.2700    2.1856   -2.3446 C   0  0  0  0  0  0  0  0  0  0  0  0
   -7.5095    1.3472   -3.4287 C   0  0  0  0  0  0  0  0  0  0  0  0
   -7.0577    0.0326   -3.3925 C   0  0  0  0  0  0  0  0  0  0  0  0
   -6.3687   -0.4384   -2.2705 C   0  0  0  0  0  0  0  0  0  0  0  0
   -7.1806   -0.0186    2.0955 H   0  0  0  0  0  0  0  0  0  0  0  0
   -7.8513   -1.6382    1.8610 H   0  0  0  0  0  0  0  0  0  0  0  0
   -8.1290   -0.3848    0.6463 H   0  0  0  0  0  0  0  0  0  0  0  0
   -5.4532   -1.6985    1.3663 H   0  0  0  0  0  0  0  0  0  0  0  0
   -6.3681   -2.0417   -0.0724 H   0  0  0  0  0  0  0  0  0  0  0  0
   -5.2502    1.1459    1.6263 H   0  0  0  0  0  0  0  0  0  0  0  0
   -4.3560    1.6938    0.2094 H   0  0  0  0  0  0  0  0  0  0  0  0
   -3.5620   -0.7378    1.8804 H   0  0  0  0  0  0  0  0  0  0  0  0
   -2.8667    0.8659    1.9707 H   0  0  0  0  0  0  0  0  0  0  0  0
   -2.1681    0.7159   -0.4395 H   0  0  0  0  0  0  0  0  0  0  0  0
   -2.8510   -0.9196   -0.5333 H   0  0  0  0  0  0  0  0  0  0  0  0
   -1.1008   -1.7658    0.6884 H   0  0  0  0  0  0  0  0  0  0  0  0
    1.5069   -1.2091    0.7093 H   0  0  0  0  0  0  0  0  0  0  0  0
    0.6848   -1.6116    2.2309 H   0  0  0  0  0  0  0  0  0  0  0  0
    2.4022    0.9047    1.7553 H   0  0  0  0  0  0  0  0  0  0  0  0
    1.5381    0.5193    3.2463 H   0  0  0  0  0  0  0  0  0  0  0  0
    5.3027    0.7308    1.6010 H   0  0  0  0  0  0  0  0  0  0  0  0
    5.1033   -3.6178   -0.8263 H   0  0  0  0  0  0  0  0  0  0  0  0
    6.3612   -1.7669   -2.8081 H   0  0  0  0  0  0  0  0  0  0  0  0
    7.6322   -2.5280   -1.8042 H   0  0  0  0  0  0  0  0  0  0  0  0
    8.6865   -0.4731   -1.4908 H   0  0  0  0  0  0  0  0  0  0  0  0
    7.5698    0.2255   -2.6815 H   0  0  0  0  0  0  0  0  0  0  0  0
    8.0455    2.4936   -2.1323 H   0  0  0  0  0  0  0  0  0  0  0  0
    9.2712    1.8122   -1.0096 H   0  0  0  0  0  0  0  0  0  0  0  0
    8.5231    3.3812   -0.6729 H   0  0  0  0  0  0  0  0  0  0  0  0
   -6.4361    2.3872   -0.3897 H   0  0  0  0  0  0  0  0  0  0  0  0
   -7.6238    3.2130   -2.3629 H   0  0  0  0  0  0  0  0  0  0  0  0
   -8.0452    1.7178   -4.2980 H   0  0  0  0  0  0  0  0  0  0  0  0
   -7.2338   -0.6285   -4.2364 H   0  0  0  0  0  0  0  0  0  0  0  0
   -6.0042   -1.4624   -2.2763 H   0  0  0  0  0  0  0  0  0  0  0  0
  1  2  1  0
  2  3  1  0
  3  4  1  0
  4  5  1  0
  5  6  1  0
  6  7  1  0
  7  8  1  0
  8  9  2  0
  8 10  1  0
 10 11  1  0
 11 12  1  0
 12 13  2  0
 12 14  2  0
 12 15  1  0
 15 16  2  0
 16 17  1  0
 17 18  2  0
 18 19  1  0
 19 20  2  0
 20 21  1  0
 18 22  1  0
 22 23  1  0
 23 24  1  0
 24 25  1  0
 25 26  1  0
 25 27  2  0
  3 28  1  0
 28 29  2  0
 29 30  1  0
 30 31  2  0
 31 32  1  0
 32 33  2  0
 20 15  1  0
 33 28  1  0
 24 17  1  0
  1 34  1  0
  1 35  1  0
  1 36  1  0
  2 37  1  0
  2 38  1  0
  4 39  1  0
  4 40  1  0
  5 41  1  0
  5 42  1  0
  6 43  1  0
  6 44  1  0
  7 45  1  0
 10 46  1  0
 10 47  1  0
 11 48  1  0
 11 49  1  0
 16 50  1  0
 19 51  1  0
 22 52  1  0
 22 53  1  0
 23 54  1  0
 23 55  1  0
 26 56  1  0
 26 57  1  0
 26 58  1  0
 29 59  1  0
 30 60  1  0
 31 61  1  0
 32 62  1  0
 33 63  1  0
M  END
$$$$
