
     RDKit          3D

 51 54  0  0  0  0  0  0  0  0999 V2000
   -6.8076    0.1722    0.2858 C   0  0  0  0  0  0  0  0  0  0  0  0
   -5.6358   -0.4129    1.0750 C   0  0  0  0  0  0  0  0  0  0  0  0
   -4.7019   -1.2347    0.1709 C   0  0  0  0  0  0  0  0  0  0  0  0
   -3.4792   -0.4415   -0.2812 C   0  0  0  0  0  0  0  0  0  0  0  0
   -2.6974    0.0614    0.8539 N   0  0  0  0  0  0  0  0  0  0  0  0
   -1.3511    0.4150    0.8069 C   0  0  0  0  0  0  0  0  0  0  0  0
   -0.7762    0.8812    1.7932 O   0  0  0  0  0  0  0  0  0  0  0  0
   -0.5782    0.1557   -0.4900 C   0  0  0  0  0  0  0  0  0  0  0  0
   -0.1208   -1.3018   -0.5589 C   0  0  0  0  0  0  0  0  0  0  0  0
    1.0371   -1.6172    0.3876 C   0  0  0  0  0  0  0  0  0  0  0  0
    1.9514   -0.4354    0.6842 C   0  0  0  0  0  0  0  0  0  0  0  0
    1.9347    0.5691   -0.3989 N   0  0  0  0  0  0  0  0  0  0  0  0
    2.9611    0.3210   -1.7391 S   0  0  0  0  0  6  0  0  0  0  0  0
    2.7763    1.4253   -2.6564 O   0  0  0  0  0  0  0  0  0  0  0  0
    2.7694   -1.0527   -2.1472 O   0  0  0  0  0  0  0  0  0  0  0  0
    4.5698    0.5142   -1.0605 C   0  0  0  0  0  0  0  0  0  0  0  0
    4.7985    1.4176    0.0042 C   0  0  0  0  0  0  0  0  0  0  0  0
    6.0711    1.6189    0.5854 C   0  0  0  0  0  0  0  0  0  0  0  0
    7.2230    0.9460    0.1475 C   0  0  0  0  0  0  0  0  0  0  0  0
    7.0540    0.0465   -0.9334 C   0  0  0  0  0  0  0  0  0  0  0  0
    8.0309   -0.6778   -1.4993 N   0  0  0  0  0  0  0  0  0  0  0  0
    7.3228   -1.5472   -2.7221 S   0  0  0  0  0  0  0  0  0  0  0  0
    5.7496   -1.0477   -2.5828 N   0  0  0  0  0  0  0  0  0  0  0  0
    5.6953   -0.1766   -1.5628 C   0  0  0  0  0  0  0  0  0  0  0  0
    0.5858    1.1455   -0.6630 C   0  0  0  0  0  0  0  0  0  0  0  0
   -3.4341    0.3213    2.0942 C   0  0  0  0  0  0  0  0  0  0  0  0
   -4.8846    0.7023    1.8195 C   0  0  0  0  0  0  0  0  0  0  0  0
   -7.3991   -0.6241   -0.1782 H   0  0  0  0  0  0  0  0  0  0  0  0
   -7.4726    0.7419    0.9436 H   0  0  0  0  0  0  0  0  0  0  0  0
   -6.4589    0.8409   -0.5084 H   0  0  0  0  0  0  0  0  0  0  0  0
   -6.0593   -1.1005    1.8193 H   0  0  0  0  0  0  0  0  0  0  0  0
   -4.3539   -2.1096    0.7366 H   0  0  0  0  0  0  0  0  0  0  0  0
   -5.2402   -1.6264   -0.6998 H   0  0  0  0  0  0  0  0  0  0  0  0
   -3.7827    0.4279   -0.8762 H   0  0  0  0  0  0  0  0  0  0  0  0
   -2.8623   -1.0747   -0.9215 H   0  0  0  0  0  0  0  0  0  0  0  0
   -1.2678    0.3577   -1.3182 H   0  0  0  0  0  0  0  0  0  0  0  0
    0.1925   -1.5157   -1.5882 H   0  0  0  0  0  0  0  0  0  0  0  0
   -0.9397   -1.9975   -0.3459 H   0  0  0  0  0  0  0  0  0  0  0  0
    0.6441   -1.9985    1.3384 H   0  0  0  0  0  0  0  0  0  0  0  0
    1.6213   -2.4420   -0.0388 H   0  0  0  0  0  0  0  0  0  0  0  0
    1.6426    0.0612    1.6112 H   0  0  0  0  0  0  0  0  0  0  0  0
    2.9686   -0.7906    0.8796 H   0  0  0  0  0  0  0  0  0  0  0  0
    3.9616    1.9981    0.3973 H   0  0  0  0  0  0  0  0  0  0  0  0
    6.1633    2.3322    1.4057 H   0  0  0  0  0  0  0  0  0  0  0  0
    8.1946    1.1098    0.5989 H   0  0  0  0  0  0  0  0  0  0  0  0
    0.5457    1.5308   -1.6882 H   0  0  0  0  0  0  0  0  0  0  0  0
    0.4713    2.0316   -0.0274 H   0  0  0  0  0  0  0  0  0  0  0  0
   -3.3838   -0.5924    2.6983 H   0  0  0  0  0  0  0  0  0  0  0  0
   -2.9512    1.1198    2.6674 H   0  0  0  0  0  0  0  0  0  0  0  0
   -4.8988    1.6282    1.2293 H   0  0  0  0  0  0  0  0  0  0  0  0
   -5.3987    0.9240    2.7621 H   0  0  0  0  0  0  0  0  0  0  0  0
  1  2  1  0
  2  3  1  0
  3  4  1  0
  4  5  1  0
  5  6  1  0
  6  7  2  0
  6  8  1  0
  8  9  1  0
  9 10  1  0
 10 11  1  0
 11 12  1  0
 12 13  1  0
 13 14  2  0
 13 15  2  0
 13 16  1  0
 16 17  2  0
 17 18  1  0
 18 19  2  0
 19 20  1  0
 20 21  2  0
 21 22  1  0
 22 23  1  0
 23 24  2  0
 12 25  1  0
  5 26  1  0
 26 27  1  0
 27  2  1  0
 25  8  1  0
 24 16  1  0
 24 20  1  0
  1 28  1  0
  1 29  1  0
  1 30  1  0
  2 31  1  0
  3 32  1  0
  3 33  1  0
  4 34  1  0
  4 35  1  0
  8 36  1  0
  9 37  1  0
  9 38  1  0
 10 39  1  0
 10 40  1  0
 11 41  1  0
 11 42  1  0
 17 43  1  0
 18 44  1  0
 19 45  1  0
 25 46  1  0
 25 47  1  0
 26 48  1  0
 26 49  1  0
 27 50  1  0
 27 51  1  0
M  END
$$$$
