
     RDKit          3D

 43 45  0  0  0  0  0  0  0  0999 V2000
   -5.9352    1.1420    1.2441 C   0  0  0  0  0  0  0  0  0  0  0  0
   -4.9842    0.8361    2.3925 C   0  0  0  0  0  0  0  0  0  0  0  0
   -3.6260    0.5555    1.9266 N   0  0  0  0  0  0  0  0  0  0  0  0
   -2.7546    1.6327    1.8536 C   0  0  0  0  0  0  0  0  0  0  0  0
   -3.0502    2.7910    2.1421 O   0  0  0  0  0  0  0  0  0  0  0  0
   -1.3804    1.3672    1.3941 C   0  0  0  0  0  0  0  0  0  0  0  0
   -0.9768    0.1511    1.0160 C   0  0  0  0  0  0  0  0  0  0  0  0
    0.6615   -0.0651    0.4763 S   0  0  0  0  0  0  0  0  0  0  0  0
    0.4282    0.2205   -1.3117 C   0  0  0  0  0  0  0  0  0  0  0  0
    1.7136    0.0150   -2.1066 C   0  0  0  0  0  0  0  0  0  0  0  0
    1.6605   -0.4319   -3.2503 O   0  0  0  0  0  0  0  0  0  0  0  0
    2.8589    0.4411   -1.4568 N   0  0  0  0  0  0  0  0  0  0  0  0
    4.1820    0.4460   -1.9402 C   0  0  0  0  0  0  0  0  0  0  0  0
    4.5406    0.0779   -3.2384 C   0  0  0  0  0  0  0  0  0  0  0  0
    5.8786    0.1130   -3.6449 C   0  0  0  0  0  0  0  0  0  0  0  0
    6.8718    0.5185   -2.7557 C   0  0  0  0  0  0  0  0  0  0  0  0
    6.5264    0.8913   -1.4554 C   0  0  0  0  0  0  0  0  0  0  0  0
    7.5410    1.3113   -0.5342 C   0  0  0  0  0  0  0  0  0  0  0  0
    8.3571    1.6531    0.2167 N   0  0  0  0  0  0  0  0  0  0  0  0
    5.1849    0.8553   -1.0514 C   0  0  0  0  0  0  0  0  0  0  0  0
   -1.9140   -0.9903    1.0699 C   0  0  0  0  0  0  0  0  0  0  0  0
   -1.5446   -2.2977    0.6922 C   0  0  0  0  0  0  0  0  0  0  0  0
   -2.4555   -3.3528    0.7353 C   0  0  0  0  0  0  0  0  0  0  0  0
   -3.7550   -3.1218    1.1576 C   0  0  0  0  0  0  0  0  0  0  0  0
   -4.1418   -1.8379    1.5446 C   0  0  0  0  0  0  0  0  0  0  0  0
   -3.2364   -0.7612    1.5155 C   0  0  0  0  0  0  0  0  0  0  0  0
   -6.0164    0.2978    0.5528 H   0  0  0  0  0  0  0  0  0  0  0  0
   -6.9351    1.3642    1.6293 H   0  0  0  0  0  0  0  0  0  0  0  0
   -5.5906    2.0087    0.6704 H   0  0  0  0  0  0  0  0  0  0  0  0
   -4.9624    1.7065    3.0600 H   0  0  0  0  0  0  0  0  0  0  0  0
   -5.3548    0.0154    3.0142 H   0  0  0  0  0  0  0  0  0  0  0  0
   -0.7307    2.2347    1.3821 H   0  0  0  0  0  0  0  0  0  0  0  0
   -0.3207   -0.4831   -1.6895 H   0  0  0  0  0  0  0  0  0  0  0  0
    0.0792    1.2433   -1.4853 H   0  0  0  0  0  0  0  0  0  0  0  0
    2.7269    0.7152   -0.4879 H   0  0  0  0  0  0  0  0  0  0  0  0
    3.8011   -0.2413   -3.9669 H   0  0  0  0  0  0  0  0  0  0  0  0
    6.1399   -0.1778   -4.6600 H   0  0  0  0  0  0  0  0  0  0  0  0
    7.9091    0.5415   -3.0843 H   0  0  0  0  0  0  0  0  0  0  0  0
    4.9306    1.1486   -0.0346 H   0  0  0  0  0  0  0  0  0  0  0  0
   -0.5365   -2.5282    0.3565 H   0  0  0  0  0  0  0  0  0  0  0  0
   -2.1464   -4.3517    0.4373 H   0  0  0  0  0  0  0  0  0  0  0  0
   -4.4716   -3.9391    1.1898 H   0  0  0  0  0  0  0  0  0  0  0  0
   -5.1722   -1.7145    1.8614 H   0  0  0  0  0  0  0  0  0  0  0  0
  1  2  1  0
  2  3  1  0
  3  4  1  0
  4  5  2  0
  4  6  1  0
  6  7  2  0
  7  8  1  0
  8  9  1  0
  9 10  1  0
 10 11  2  0
 10 12  1  0
 12 13  1  0
 13 14  2  0
 14 15  1  0
 15 16  2  0
 16 17  1  0
 17 18  1  0
 18 19  3  0
 17 20  2  0
  7 21  1  0
 21 22  2  0
 22 23  1  0
 23 24  2  0
 24 25  1  0
 25 26  2  0
 26  3  1  0
 20 13  1  0
 26 21  1  0
  1 27  1  0
  1 28  1  0
  1 29  1  0
  2 30  1  0
  2 31  1  0
  6 32  1  0
  9 33  1  0
  9 34  1  0
 12 35  1  0
 14 36  1  0
 15 37  1  0
 16 38  1  0
 20 39  1  0
 22 40  1  0
 23 41  1  0
 24 42  1  0
 25 43  1  0
M  END
$$$$
