
     RDKit          3D

 72 76  0  0  0  0  0  0  0  0999 V2000
    3.3784    0.9373    4.8492 C   0  0  0  0  0  0  0  0  0  0  0  0
    2.3225   -0.1068    4.5143 C   0  0  0  0  0  0  0  0  0  0  0  0
    1.8217    0.0669    3.1387 N   0  0  0  0  0  0  0  0  0  0  0  0
    0.6856    0.8267    2.8955 C   0  0  0  0  0  0  0  0  0  0  0  0
    0.1447    1.0907    1.6993 C   0  0  0  0  0  0  0  0  0  0  0  0
   -1.0690    1.9367    1.6577 C   0  0  0  0  0  0  0  0  0  0  0  0
   -1.0553    3.0304    2.2236 O   0  0  0  0  0  0  0  0  0  0  0  0
   -2.1946    1.4468    1.0230 N   0  0  0  0  0  0  0  0  0  0  0  0
   -3.3498    2.3335    0.8824 C   0  0  0  0  0  0  0  0  0  0  0  0
   -4.3367    1.8706   -0.2005 C   0  0  0  0  0  0  0  0  0  0  0  0
   -4.8024    0.4814    0.0111 N   0  0  0  0  0  0  0  0  0  0  0  0
   -5.7544   -0.0482   -0.8714 C   0  0  0  0  0  0  0  0  0  0  0  0
   -6.3272   -1.3126   -0.6553 C   0  0  0  0  0  0  0  0  0  0  0  0
   -7.2694   -1.8627   -1.5294 C   0  0  0  0  0  0  0  0  0  0  0  0
   -7.6841   -1.1508   -2.6477 C   0  0  0  0  0  0  0  0  0  0  0  0
   -7.1746    0.1244   -2.8834 C   0  0  0  0  0  0  0  0  0  0  0  0
   -7.5973    0.8935   -4.0999 C   0  0  0  0  0  0  0  0  0  0  0  0
   -6.2192    0.6554   -1.9988 C   0  0  0  0  0  0  0  0  0  0  0  0
   -3.8177   -0.4506    0.6274 C   0  0  0  0  0  0  0  0  0  0  0  0
   -4.1825   -0.6899    2.0974 C   0  0  0  0  0  0  0  0  0  0  0  0
   -2.3645    0.0825    0.5027 C   0  0  0  0  0  0  0  0  0  0  0  0
    0.8441    0.5747    0.5059 C   0  0  0  0  0  0  0  0  0  0  0  0
    0.4524    0.8076   -0.6331 O   0  0  0  0  0  0  0  0  0  0  0  0
    2.0684   -0.2386    0.7256 C   0  0  0  0  0  0  0  0  0  0  0  0
    2.7367   -0.7488   -0.3982 C   0  0  0  0  0  0  0  0  0  0  0  0
    3.9048   -1.4854   -0.2215 C   0  0  0  0  0  0  0  0  0  0  0  0
    4.7490   -2.1616   -1.6355 S   0  0  0  0  0  6  0  0  0  0  0  0
    5.5441   -3.2765   -1.1646 O   0  0  0  0  0  0  0  0  0  0  0  0
    3.7671   -2.3358   -2.6836 O   0  0  0  0  0  0  0  0  0  0  0  0
    5.8086   -0.9249   -2.0981 N   0  0  0  0  0  0  0  0  0  0  0  0
    5.2049    0.3120   -2.6701 C   0  0  0  0  0  0  0  0  0  0  0  0
    6.3042    1.1562   -3.3273 C   0  0  0  0  0  0  0  0  0  0  0  0
    7.3404    1.4783   -2.3850 O   0  0  0  0  0  0  0  0  0  0  0  0
    7.9517    0.2774   -1.8884 C   0  0  0  0  0  0  0  0  0  0  0  0
    6.9254   -0.6032   -1.1666 C   0  0  0  0  0  0  0  0  0  0  0  0
    4.3799   -1.7503    1.0620 C   0  0  0  0  0  0  0  0  0  0  0  0
    3.7018   -1.2418    2.1773 C   0  0  0  0  0  0  0  0  0  0  0  0
    2.5345   -0.4695    2.0421 C   0  0  0  0  0  0  0  0  0  0  0  0
    3.7184    0.8107    5.8815 H   0  0  0  0  0  0  0  0  0  0  0  0
    2.9760    1.9507    4.7448 H   0  0  0  0  0  0  0  0  0  0  0  0
    4.2502    0.8557    4.1941 H   0  0  0  0  0  0  0  0  0  0  0  0
    1.4927    0.0007    5.2252 H   0  0  0  0  0  0  0  0  0  0  0  0
    2.7009   -1.1206    4.6860 H   0  0  0  0  0  0  0  0  0  0  0  0
    0.2214    1.2244    3.7969 H   0  0  0  0  0  0  0  0  0  0  0  0
   -3.8473    2.3819    1.8589 H   0  0  0  0  0  0  0  0  0  0  0  0
   -2.9974    3.3456    0.6489 H   0  0  0  0  0  0  0  0  0  0  0  0
   -3.8343    1.9443   -1.1739 H   0  0  0  0  0  0  0  0  0  0  0  0
   -5.1916    2.5571   -0.1948 H   0  0  0  0  0  0  0  0  0  0  0  0
   -6.0602   -1.9002    0.2165 H   0  0  0  0  0  0  0  0  0  0  0  0
   -7.6813   -2.8480   -1.3293 H   0  0  0  0  0  0  0  0  0  0  0  0
   -8.4075   -1.5920   -3.3265 H   0  0  0  0  0  0  0  0  0  0  0  0
   -7.0040    0.5799   -4.9634 H   0  0  0  0  0  0  0  0  0  0  0  0
   -7.4644    1.9708   -3.9539 H   0  0  0  0  0  0  0  0  0  0  0  0
   -8.6594    0.7255   -4.3100 H   0  0  0  0  0  0  0  0  0  0  0  0
   -5.8286    1.6414   -2.2297 H   0  0  0  0  0  0  0  0  0  0  0  0
   -3.8217   -1.4208    0.1133 H   0  0  0  0  0  0  0  0  0  0  0  0
   -4.1732    0.2345    2.6808 H   0  0  0  0  0  0  0  0  0  0  0  0
   -3.4763   -1.3863    2.5621 H   0  0  0  0  0  0  0  0  0  0  0  0
   -5.1840   -1.1193    2.1912 H   0  0  0  0  0  0  0  0  0  0  0  0
   -2.0899    0.1176   -0.5581 H   0  0  0  0  0  0  0  0  0  0  0  0
   -1.6762   -0.6045    1.0045 H   0  0  0  0  0  0  0  0  0  0  0  0
    2.3434   -0.5673   -1.3971 H   0  0  0  0  0  0  0  0  0  0  0  0
    4.4523    0.0621   -3.4229 H   0  0  0  0  0  0  0  0  0  0  0  0
    4.7359    0.8895   -1.8661 H   0  0  0  0  0  0  0  0  0  0  0  0
    6.7484    0.6333   -4.1837 H   0  0  0  0  0  0  0  0  0  0  0  0
    5.8833    2.0980   -3.6916 H   0  0  0  0  0  0  0  0  0  0  0  0
    8.4187   -0.2583   -2.7237 H   0  0  0  0  0  0  0  0  0  0  0  0
    8.7446    0.5709   -1.1932 H   0  0  0  0  0  0  0  0  0  0  0  0
    7.4199   -1.5166   -0.8247 H   0  0  0  0  0  0  0  0  0  0  0  0
    6.5269   -0.0621   -0.3013 H   0  0  0  0  0  0  0  0  0  0  0  0
    5.2728   -2.3556    1.2099 H   0  0  0  0  0  0  0  0  0  0  0  0
    4.1196   -1.4738    3.1523 H   0  0  0  0  0  0  0  0  0  0  0  0
  1  2  1  0
  2  3  1  0
  3  4  1  0
  4  5  2  0
  5  6  1  0
  6  7  2  0
  6  8  1  0
  8  9  1  0
  9 10  1  0
 10 11  1  0
 11 12  1  0
 12 13  2  0
 13 14  1  0
 14 15  2  0
 15 16  1  0
 16 17  1  0
 16 18  2  0
 11 19  1  0
 19 20  1  0
 19 21  1  0
  5 22  1  0
 22 23  2  0
 22 24  1  0
 24 25  2  0
 25 26  1  0
 26 27  1  0
 27 28  2  0
 27 29  2  0
 27 30  1  0
 30 31  1  0
 31 32  1  0
 32 33  1  0
 33 34  1  0
 34 35  1  0
 26 36  2  0
 36 37  1  0
 37 38  2  0
 38  3  1  0
 21  8  1  0
 38 24  1  0
 18 12  1  0
 35 30  1  0
  1 39  1  0
  1 40  1  0
  1 41  1  0
  2 42  1  0
  2 43  1  0
  4 44  1  0
  9 45  1  0
  9 46  1  0
 10 47  1  0
 10 48  1  0
 13 49  1  0
 14 50  1  0
 15 51  1  0
 17 52  1  0
 17 53  1  0
 17 54  1  0
 18 55  1  0
 19 56  1  0
 20 57  1  0
 20 58  1  0
 20 59  1  0
 21 60  1  0
 21 61  1  0
 25 62  1  0
 31 63  1  0
 31 64  1  0
 32 65  1  0
 32 66  1  0
 34 67  1  0
 34 68  1  0
 35 69  1  0
 35 70  1  0
 36 71  1  0
 37 72  1  0
M  END
$$$$
