
     RDKit          3D

 46 47  0  0  0  0  0  0  0  0999 V2000
    6.2499   -0.7092    3.0783 C   0  0  0  0  0  0  0  0  0  0  0  0
    6.2637   -1.2671    1.7711 O   0  0  0  0  0  0  0  0  0  0  0  0
    4.9872   -1.2230    1.1263 C   0  0  0  0  0  0  0  0  0  0  0  0
    4.7294    0.1391    0.4738 C   0  0  0  0  0  0  0  0  0  0  0  0
    3.4046    0.2612   -0.1039 N   0  0  0  0  0  0  0  0  0  0  0  0
    3.0783   -0.3587   -1.2928 C   0  0  0  0  0  0  0  0  0  0  0  0
    3.8097   -1.1637   -1.8627 O   0  0  0  0  0  0  0  0  0  0  0  0
    1.7089   -0.0112   -1.8295 C   0  0  0  0  0  0  0  0  0  0  0  0
    1.6311    1.7445   -2.2596 S   0  0  0  0  0  4  0  0  0  0  0  0
    1.6285    2.5334   -0.9822 O   0  0  0  0  0  0  0  0  0  0  0  0
   -0.0205    1.7711   -3.0179 C   0  0  0  0  0  0  0  0  0  0  0  0
   -1.0762    1.0273   -2.2880 C   0  0  0  0  0  0  0  0  0  0  0  0
   -1.4893    1.4041   -1.0296 N   0  0  0  0  0  0  0  0  0  0  0  0
   -2.4250    0.5316   -0.7072 C   0  0  0  0  0  0  0  0  0  0  0  0
   -3.2191    0.4355    0.5147 C   0  0  0  0  0  0  0  0  0  0  0  0
   -3.0072    1.3565    1.5505 C   0  0  0  0  0  0  0  0  0  0  0  0
   -3.7503    1.2881    2.7305 C   0  0  0  0  0  0  0  0  0  0  0  0
   -4.7199    0.2990    2.8890 C   0  0  0  0  0  0  0  0  0  0  0  0
   -4.9601   -0.6248    1.8666 C   0  0  0  0  0  0  0  0  0  0  0  0
   -5.9801   -1.7105    2.0458 C   0  0  0  0  0  0  0  0  0  0  0  0
   -4.1970   -0.5569    0.6905 C   0  0  0  0  0  0  0  0  0  0  0  0
   -2.6612   -0.4059   -1.6784 O   0  0  0  0  0  0  0  0  0  0  0  0
   -1.8026   -0.0768   -2.6884 C   0  0  0  0  0  0  0  0  0  0  0  0
   -1.8403   -0.9280   -3.8904 C   0  0  0  0  0  0  0  0  0  0  0  0
    7.2540   -0.8035    3.5004 H   0  0  0  0  0  0  0  0  0  0  0  0
    5.9863    0.3504    3.0535 H   0  0  0  0  0  0  0  0  0  0  0  0
    5.5522   -1.2553    3.7207 H   0  0  0  0  0  0  0  0  0  0  0  0
    4.9948   -2.0026    0.3576 H   0  0  0  0  0  0  0  0  0  0  0  0
    4.1914   -1.4849    1.8338 H   0  0  0  0  0  0  0  0  0  0  0  0
    5.4767    0.3276   -0.3062 H   0  0  0  0  0  0  0  0  0  0  0  0
    4.8313    0.9451    1.2072 H   0  0  0  0  0  0  0  0  0  0  0  0
    2.8680    1.0985    0.1295 H   0  0  0  0  0  0  0  0  0  0  0  0
    0.9651   -0.2565   -1.0662 H   0  0  0  0  0  0  0  0  0  0  0  0
    1.5190   -0.6056   -2.7284 H   0  0  0  0  0  0  0  0  0  0  0  0
    0.0988    1.3720   -4.0308 H   0  0  0  0  0  0  0  0  0  0  0  0
   -0.3111    2.8226   -3.1177 H   0  0  0  0  0  0  0  0  0  0  0  0
   -2.2538    2.1362    1.4405 H   0  0  0  0  0  0  0  0  0  0  0  0
   -3.5704    2.0070    3.5265 H   0  0  0  0  0  0  0  0  0  0  0  0
   -5.2890    0.2550    3.8154 H   0  0  0  0  0  0  0  0  0  0  0  0
   -6.7778   -1.3912    2.7250 H   0  0  0  0  0  0  0  0  0  0  0  0
   -6.4499   -1.9645    1.0896 H   0  0  0  0  0  0  0  0  0  0  0  0
   -5.5042   -2.6064    2.4565 H   0  0  0  0  0  0  0  0  0  0  0  0
   -4.3730   -1.2876   -0.0970 H   0  0  0  0  0  0  0  0  0  0  0  0
   -2.8659   -1.2359   -4.1177 H   0  0  0  0  0  0  0  0  0  0  0  0
   -1.2364   -1.8278   -3.7354 H   0  0  0  0  0  0  0  0  0  0  0  0
   -1.4484   -0.3975   -4.7636 H   0  0  0  0  0  0  0  0  0  0  0  0
  1  2  1  0
  2  3  1  0
  3  4  1  0
  4  5  1  0
  5  6  1  0
  6  7  2  0
  6  8  1  0
  8  9  1  0
  9 10  2  0
  9 11  1  0
 11 12  1  0
 12 13  1  0
 13 14  2  0
 14 15  1  0
 15 16  2  0
 16 17  1  0
 17 18  2  0
 18 19  1  0
 19 20  1  0
 19 21  2  0
 14 22  1  0
 22 23  1  0
 23 24  1  0
 23 12  2  0
 21 15  1  0
  1 25  1  0
  1 26  1  0
  1 27  1  0
  3 28  1  0
  3 29  1  0
  4 30  1  0
  4 31  1  0
  5 32  1  0
  8 33  1  0
  8 34  1  0
 11 35  1  0
 11 36  1  0
 16 37  1  0
 17 38  1  0
 18 39  1  0
 20 40  1  0
 20 41  1  0
 20 42  1  0
 21 43  1  0
 24 44  1  0
 24 45  1  0
 24 46  1  0
M  END
$$$$
