
     RDKit          3D

 68 70  0  0  0  0  0  0  0  0999 V2000
   -6.3153   -1.6368   -2.9274 C   0  0  0  0  0  0  0  0  0  0  0  0
   -6.4009   -1.1908   -1.4754 C   0  0  0  0  0  0  0  0  0  0  0  0
   -5.2864   -0.1925   -1.1320 C   0  0  0  0  0  0  0  0  0  0  0  0
   -5.2506    0.1529    0.3021 N   0  0  0  0  0  0  0  0  0  0  0  0
   -6.3864    1.0027    0.6967 C   0  0  0  0  0  0  0  0  0  0  0  0
   -6.4891    1.2954    2.2019 C   0  0  0  0  0  0  0  0  0  0  0  0
   -6.6057    0.0362    3.0501 C   0  0  0  0  0  0  0  0  0  0  0  0
   -3.9310    0.7061    0.6738 C   0  0  0  0  0  0  0  0  0  0  0  0
   -3.5542    2.0820    0.0852 C   0  0  0  0  0  0  0  0  0  0  0  0
   -2.2639    2.5517    0.5632 N   0  0  0  0  0  0  0  0  0  0  0  0
   -1.0850    2.0598    0.0423 C   0  0  0  0  0  0  0  0  0  0  0  0
   -1.0432    1.2812   -0.9081 O   0  0  0  0  0  0  0  0  0  0  0  0
    0.1742    2.6094    0.7214 C   0  0  0  0  0  0  0  0  0  0  0  0
    1.2704    1.6856    0.5426 N   0  0  0  0  0  0  0  0  0  0  0  0
    1.4334    0.6236    1.4003 C   0  0  0  0  0  0  0  0  0  0  0  0
    0.8570    0.4800    2.4667 O   0  0  0  0  0  0  0  0  0  0  0  0
    2.4262   -0.4171    0.8980 C   0  0  0  0  0  0  0  0  0  0  0  0
    3.5654    0.0490    0.4866 N   0  0  0  0  0  0  0  0  0  0  0  0
    4.5377   -0.8091    0.0124 N   0  0  0  0  0  0  0  0  0  0  0  0
    5.7263   -0.1256   -0.4393 C   0  0  0  0  0  0  0  0  0  0  0  0
    5.8363    1.2706   -0.2947 C   0  0  0  0  0  0  0  0  0  0  0  0
    6.9651    1.9702   -0.7395 C   0  0  0  0  0  0  0  0  0  0  0  0
    8.0261    1.2996   -1.3410 C   0  0  0  0  0  0  0  0  0  0  0  0
    9.0635    2.0964   -1.7345 O   0  0  0  0  0  0  0  0  0  0  0  0
   10.1653    1.4495   -2.3607 C   0  0  0  0  0  0  0  0  0  0  0  0
    7.9421   -0.0801   -1.4932 C   0  0  0  0  0  0  0  0  0  0  0  0
    6.8050   -0.7794   -1.0501 C   0  0  0  0  0  0  0  0  0  0  0  0
    4.3633   -2.2036   -0.0169 C   0  0  0  0  0  0  0  0  0  0  0  0
    5.1880   -3.0442   -0.3722 O   0  0  0  0  0  0  0  0  0  0  0  0
    3.0435   -2.7149    0.4197 C   0  0  0  0  0  0  0  0  0  0  0  0
    2.7688   -4.0903    0.3624 C   0  0  0  0  0  0  0  0  0  0  0  0
    1.5170   -4.5736    0.7443 C   0  0  0  0  0  0  0  0  0  0  0  0
    0.5352   -3.6873    1.1805 C   0  0  0  0  0  0  0  0  0  0  0  0
    0.8050   -2.3184    1.2417 C   0  0  0  0  0  0  0  0  0  0  0  0
    2.0661   -1.8355    0.8682 C   0  0  0  0  0  0  0  0  0  0  0  0
   -7.1156   -2.3486   -3.1508 H   0  0  0  0  0  0  0  0  0  0  0  0
   -6.4190   -0.7838   -3.6055 H   0  0  0  0  0  0  0  0  0  0  0  0
   -5.3573   -2.1260   -3.1329 H   0  0  0  0  0  0  0  0  0  0  0  0
   -7.3884   -0.7473   -1.3131 H   0  0  0  0  0  0  0  0  0  0  0  0
   -6.3267   -2.0709   -0.8266 H   0  0  0  0  0  0  0  0  0  0  0  0
   -5.3880    0.7080   -1.7512 H   0  0  0  0  0  0  0  0  0  0  0  0
   -4.3351   -0.6645   -1.4118 H   0  0  0  0  0  0  0  0  0  0  0  0
   -6.3680    1.9542    0.1507 H   0  0  0  0  0  0  0  0  0  0  0  0
   -7.3254    0.5120    0.4168 H   0  0  0  0  0  0  0  0  0  0  0  0
   -7.3809    1.9112    2.3707 H   0  0  0  0  0  0  0  0  0  0  0  0
   -5.6391    1.8958    2.5429 H   0  0  0  0  0  0  0  0  0  0  0  0
   -6.7484    0.3031    4.1024 H   0  0  0  0  0  0  0  0  0  0  0  0
   -7.4614   -0.5698    2.7364 H   0  0  0  0  0  0  0  0  0  0  0  0
   -5.7044   -0.5796    2.9818 H   0  0  0  0  0  0  0  0  0  0  0  0
   -3.1588   -0.0260    0.4009 H   0  0  0  0  0  0  0  0  0  0  0  0
   -3.8578    0.7583    1.7671 H   0  0  0  0  0  0  0  0  0  0  0  0
   -4.2815    2.8465    0.3764 H   0  0  0  0  0  0  0  0  0  0  0  0
   -3.5205    2.0372   -1.0089 H   0  0  0  0  0  0  0  0  0  0  0  0
   -2.2379    3.0259    1.4574 H   0  0  0  0  0  0  0  0  0  0  0  0
    0.4451    3.5552    0.2438 H   0  0  0  0  0  0  0  0  0  0  0  0
   -0.0075    2.7728    1.7880 H   0  0  0  0  0  0  0  0  0  0  0  0
    1.6976    1.6095   -0.3736 H   0  0  0  0  0  0  0  0  0  0  0  0
    5.0450    1.8472    0.1766 H   0  0  0  0  0  0  0  0  0  0  0  0
    7.0115    3.0499   -0.6140 H   0  0  0  0  0  0  0  0  0  0  0  0
    9.8576    0.9669   -3.2937 H   0  0  0  0  0  0  0  0  0  0  0  0
   10.6424    0.7351   -1.6818 H   0  0  0  0  0  0  0  0  0  0  0  0
   10.9046    2.2160   -2.6111 H   0  0  0  0  0  0  0  0  0  0  0  0
    8.7347   -0.6545   -1.9611 H   0  0  0  0  0  0  0  0  0  0  0  0
    6.8069   -1.8507   -1.2175 H   0  0  0  0  0  0  0  0  0  0  0  0
    3.5277   -4.7894    0.0145 H   0  0  0  0  0  0  0  0  0  0  0  0
    1.3086   -5.6399    0.6945 H   0  0  0  0  0  0  0  0  0  0  0  0
   -0.4438   -4.0614    1.4730 H   0  0  0  0  0  0  0  0  0  0  0  0
    0.0147   -1.6546    1.5842 H   0  0  0  0  0  0  0  0  0  0  0  0
  1  2  1  0
  2  3  1  0
  3  4  1  0
  4  5  1  0
  5  6  1  0
  6  7  1  0
  4  8  1  0
  8  9  1  0
  9 10  1  0
 10 11  1  0
 11 12  2  0
 11 13  1  0
 13 14  1  0
 14 15  1  0
 15 16  2  0
 15 17  1  0
 17 18  2  0
 18 19  1  0
 19 20  1  0
 20 21  2  0
 21 22  1  0
 22 23  2  0
 23 24  1  0
 24 25  1  0
 23 26  1  0
 26 27  2  0
 19 28  1  0
 28 29  2  0
 28 30  1  0
 30 31  2  0
 31 32  1  0
 32 33  2  0
 33 34  1  0
 34 35  2  0
 35 17  1  0
 27 20  1  0
 35 30  1  0
  1 36  1  0
  1 37  1  0
  1 38  1  0
  2 39  1  0
  2 40  1  0
  3 41  1  0
  3 42  1  0
  5 43  1  0
  5 44  1  0
  6 45  1  0
  6 46  1  0
  7 47  1  0
  7 48  1  0
  7 49  1  0
  8 50  1  0
  8 51  1  0
  9 52  1  0
  9 53  1  0
 10 54  1  0
 13 55  1  0
 13 56  1  0
 14 57  1  0
 21 58  1  0
 22 59  1  0
 25 60  1  0
 25 61  1  0
 25 62  1  0
 26 63  1  0
 27 64  1  0
 31 65  1  0
 32 66  1  0
 33 67  1  0
 34 68  1  0
M  END
$$$$
