
     RDKit          3D

 45 48  0  0  0  0  0  0  0  0999 V2000
    0.1792   -2.5177   -0.9093 O   0  0  0  0  0  0  0  0  0  0  0  0
   -0.0840   -1.5050   -0.2663 C   0  0  0  0  0  0  0  0  0  0  0  0
   -1.3610   -1.1670    0.1121 N   0  0  0  0  0  0  0  0  0  0  0  0
   -2.5556   -1.9141   -0.2811 C   0  0  2  0  0  0  0  0  0  0  0  0
   -2.8601   -1.7530   -1.7858 C   0  0  0  0  0  0  0  0  0  0  0  0
   -2.0232   -2.5809   -2.5946 O   0  0  0  0  0  0  0  0  0  0  0  0
   -3.7635   -1.5510    0.6097 C   0  0  0  0  0  0  0  0  0  0  0  0
   -4.2113   -0.1075    0.5508 C   0  0  0  0  0  0  0  0  0  0  0  0
   -5.1436    0.3149   -0.4067 C   0  0  0  0  0  0  0  0  0  0  0  0
   -5.5438    1.6510   -0.4655 C   0  0  0  0  0  0  0  0  0  0  0  0
   -5.0212    2.5773    0.4342 C   0  0  0  0  0  0  0  0  0  0  0  0
   -4.1015    2.1680    1.3970 C   0  0  0  0  0  0  0  0  0  0  0  0
   -3.7004    0.8326    1.4576 C   0  0  0  0  0  0  0  0  0  0  0  0
    0.9280   -0.5178    0.1335 C   0  0  0  0  0  0  0  0  0  0  0  0
    0.5989    0.6207    0.7892 N   0  0  0  0  0  0  0  0  0  0  0  0
    1.7800    1.2538    0.9627 N   0  0  0  0  0  0  0  0  0  0  0  0
    2.8331    0.5687    0.4486 C   0  0  0  0  0  0  0  0  0  0  0  0
    2.3213   -0.5787   -0.0941 C   0  0  0  0  0  0  0  0  0  0  0  0
    3.1857   -1.5781   -0.7581 C   0  0  0  0  0  0  0  0  0  0  0  0
    4.6135   -1.2911   -0.7267 O   0  0  0  0  0  0  0  0  0  0  0  0
    5.0640   -0.1043   -0.1899 C   0  0  0  0  0  0  0  0  0  0  0  0
    6.4415    0.1035   -0.2615 C   0  0  0  0  0  0  0  0  0  0  0  0
    7.0004    1.2720    0.2583 C   0  0  0  0  0  0  0  0  0  0  0  0
    6.1837    2.2353    0.8527 C   0  0  0  0  0  0  0  0  0  0  0  0
    4.8031    2.0366    0.9324 C   0  0  0  0  0  0  0  0  0  0  0  0
    4.2412    0.8682    0.4131 C   0  0  0  0  0  0  0  0  0  0  0  0
   -1.4476   -0.2146    0.4619 H   0  0  0  0  0  0  0  0  0  0  0  0
   -2.3195   -2.9716   -0.1016 H   0  0  0  0  0  0  0  0  0  0  0  0
   -2.7250   -0.7168   -2.1128 H   0  0  0  0  0  0  0  0  0  0  0  0
   -3.8881   -2.0549   -2.0074 H   0  0  0  0  0  0  0  0  0  0  0  0
   -1.1456   -2.6453   -2.1628 H   0  0  0  0  0  0  0  0  0  0  0  0
   -3.5223   -1.7958    1.6532 H   0  0  0  0  0  0  0  0  0  0  0  0
   -4.6140   -2.1960    0.3518 H   0  0  0  0  0  0  0  0  0  0  0  0
   -5.5714   -0.3923   -1.1139 H   0  0  0  0  0  0  0  0  0  0  0  0
   -6.2662    1.9687   -1.2131 H   0  0  0  0  0  0  0  0  0  0  0  0
   -5.3343    3.6170    0.3879 H   0  0  0  0  0  0  0  0  0  0  0  0
   -3.6976    2.8885    2.1034 H   0  0  0  0  0  0  0  0  0  0  0  0
   -2.9861    0.5314    2.2216 H   0  0  0  0  0  0  0  0  0  0  0  0
    1.7831    2.1482    1.4407 H   0  0  0  0  0  0  0  0  0  0  0  0
    3.0541   -2.5589   -0.2887 H   0  0  0  0  0  0  0  0  0  0  0  0
    2.9069   -1.6722   -1.8133 H   0  0  0  0  0  0  0  0  0  0  0  0
    7.0790   -0.6458   -0.7231 H   0  0  0  0  0  0  0  0  0  0  0  0
    8.0744    1.4302    0.1991 H   0  0  0  0  0  0  0  0  0  0  0  0
    6.6260    3.1436    1.2554 H   0  0  0  0  0  0  0  0  0  0  0  0
    4.1898    2.8003    1.3995 H   0  0  0  0  0  0  0  0  0  0  0  0
  1  2  2  0
  2  3  1  0
  3  4  1  0
  4  5  1  0
  5  6  1  0
  4  7  1  0
  7  8  1  0
  8  9  2  0
  9 10  1  0
 10 11  2  0
 11 12  1  0
 12 13  2  0
  2 14  1  0
 14 15  2  0
 15 16  1  0
 16 17  1  0
 17 18  2  0
 18 19  1  0
 19 20  1  0
 20 21  1  0
 21 22  2  0
 22 23  1  0
 23 24  2  0
 24 25  1  0
 25 26  2  0
 13  8  1  0
 18 14  1  0
 26 21  1  0
 26 17  1  0
  3 27  1  0
  4 28  1  6
  5 29  1  0
  5 30  1  0
  6 31  1  0
  7 32  1  0
  7 33  1  0
  9 34  1  0
 10 35  1  0
 11 36  1  0
 12 37  1  0
 13 38  1  0
 16 39  1  0
 19 40  1  0
 19 41  1  0
 22 42  1  0
 23 43  1  0
 24 44  1  0
 25 45  1  0
M  END
$$$$
