
     RDKit          3D

 46 49  0  0  0  0  0  0  0  0999 V2000
    1.5948    1.7458    4.0540 C   0  0  0  0  0  0  0  0  0  0  0  0
    1.0199    0.5083    3.6513 O   0  0  0  0  0  0  0  0  0  0  0  0
    1.4530   -0.0208    2.4674 C   0  0  0  0  0  0  0  0  0  0  0  0
    2.2794    0.6175    1.5413 C   0  0  0  0  0  0  0  0  0  0  0  0
    2.6363   -0.0215    0.3459 C   0  0  0  0  0  0  0  0  0  0  0  0
    2.1625   -1.3027    0.0654 C   0  0  0  0  0  0  0  0  0  0  0  0
    2.4255   -2.0174   -1.0768 O   0  0  0  0  0  0  0  0  0  0  0  0
    3.1316   -1.3406   -2.1108 C   0  0  0  0  0  0  0  0  0  0  0  0
    1.3352   -1.9437    1.0039 C   0  0  0  0  0  0  0  0  0  0  0  0
    0.7928   -3.2310    0.6803 N   0  0  0  0  0  0  0  0  0  0  0  0
   -0.8581   -3.3250    0.3189 S   0  0  0  0  0  6  0  0  0  0  0  0
   -1.0667   -4.5936   -0.3459 O   0  0  0  0  0  0  0  0  0  0  0  0
   -1.6274   -2.9554    1.4884 O   0  0  0  0  0  0  0  0  0  0  0  0
   -1.0866   -2.0412   -0.8976 C   0  0  0  0  0  0  0  0  0  0  0  0
   -0.8795   -2.3268   -2.2517 C   0  0  0  0  0  0  0  0  0  0  0  0
   -1.0264   -1.3096   -3.1904 C   0  0  0  0  0  0  0  0  0  0  0  0
   -1.3807   -0.0316   -2.7547 C   0  0  0  0  0  0  0  0  0  0  0  0
   -1.4855    0.9674   -3.7662 O   0  0  0  0  0  0  0  0  0  0  0  0
   -1.8122    2.3179   -3.4923 C   0  0  0  0  0  0  0  0  0  0  0  0
   -1.8696    3.1440   -4.3980 O   0  0  0  0  0  0  0  0  0  0  0  0
   -2.0535    2.6130   -2.0837 C   0  0  0  0  0  0  0  0  0  0  0  0
   -2.3823    3.8350   -1.5427 N   0  0  0  0  0  0  0  0  0  0  0  0
   -2.5031    3.6144   -0.2544 C   0  0  0  0  0  0  0  0  0  0  0  0
   -2.2594    2.3034    0.0671 N   0  0  0  0  0  0  0  0  0  0  0  0
   -2.3243    1.7869    1.4118 C   0  0  0  0  0  0  0  0  0  0  0  0
   -1.9643    1.6420   -1.0992 C   0  0  0  0  0  0  0  0  0  0  0  0
   -1.6152    0.2650   -1.3982 C   0  0  0  0  0  0  0  0  0  0  0  0
   -1.4792   -0.7619   -0.4700 C   0  0  0  0  0  0  0  0  0  0  0  0
    0.9824   -1.3061    2.1933 C   0  0  0  0  0  0  0  0  0  0  0  0
    1.2050    1.9878    5.0474 H   0  0  0  0  0  0  0  0  0  0  0  0
    1.3005    2.5528    3.3751 H   0  0  0  0  0  0  0  0  0  0  0  0
    2.6846    1.6713    4.1319 H   0  0  0  0  0  0  0  0  0  0  0  0
    2.6627    1.6186    1.7146 H   0  0  0  0  0  0  0  0  0  0  0  0
    3.2826    0.5144   -0.3420 H   0  0  0  0  0  0  0  0  0  0  0  0
    2.5923   -0.4455   -2.4383 H   0  0  0  0  0  0  0  0  0  0  0  0
    3.2003   -2.0192   -2.9665 H   0  0  0  0  0  0  0  0  0  0  0  0
    4.1512   -1.0974   -1.7952 H   0  0  0  0  0  0  0  0  0  0  0  0
    1.3376   -3.7356   -0.0227 H   0  0  0  0  0  0  0  0  0  0  0  0
   -0.5973   -3.3266   -2.5747 H   0  0  0  0  0  0  0  0  0  0  0  0
   -0.8631   -1.5058   -4.2466 H   0  0  0  0  0  0  0  0  0  0  0  0
   -2.7635    4.3618    0.4850 H   0  0  0  0  0  0  0  0  0  0  0  0
   -1.3365    1.4133    1.6896 H   0  0  0  0  0  0  0  0  0  0  0  0
   -2.6112    2.5874    2.0993 H   0  0  0  0  0  0  0  0  0  0  0  0
   -3.0780    0.9970    1.4477 H   0  0  0  0  0  0  0  0  0  0  0  0
   -1.6453   -0.5990    0.5881 H   0  0  0  0  0  0  0  0  0  0  0  0
    0.3387   -1.8070    2.9128 H   0  0  0  0  0  0  0  0  0  0  0  0
  1  2  1  0
  2  3  1  0
  3  4  2  0
  4  5  1  0
  5  6  2  0
  6  7  1  0
  7  8  1  0
  6  9  1  0
  9 10  1  0
 10 11  1  0
 11 12  2  0
 11 13  2  0
 11 14  1  0
 14 15  2  0
 15 16  1  0
 16 17  2  0
 17 18  1  0
 18 19  1  0
 19 20  2  0
 19 21  1  0
 21 22  1  0
 22 23  2  0
 23 24  1  0
 24 25  1  0
 24 26  1  0
 26 27  1  0
 27 28  2  0
  9 29  2  0
 29  3  1  0
 28 14  1  0
 27 17  1  0
 26 21  2  0
  1 30  1  0
  1 31  1  0
  1 32  1  0
  4 33  1  0
  5 34  1  0
  8 35  1  0
  8 36  1  0
  8 37  1  0
 10 38  1  0
 15 39  1  0
 16 40  1  0
 23 41  1  0
 25 42  1  0
 25 43  1  0
 25 44  1  0
 28 45  1  0
 29 46  1  0
M  END
$$$$
