
     RDKit          3D

 54 57  0  0  0  0  0  0  0  0999 V2000
    6.5740    1.5279    1.7011 C   0  0  0  0  0  0  0  0  0  0  0  0
    5.1470    1.6895    1.2057 C   0  0  0  0  0  0  0  0  0  0  0  0
    4.2971    0.9397    2.0771 O   0  0  0  0  0  0  0  0  0  0  0  0
    3.1726    0.4260    1.4823 C   0  0  0  0  0  0  0  0  0  0  0  0
    2.8780   -0.8884    1.8519 C   0  0  0  0  0  0  0  0  0  0  0  0
    1.7578   -1.5367    1.3316 C   0  0  0  0  0  0  0  0  0  0  0  0
    0.8985   -0.8779    0.4384 C   0  0  0  0  0  0  0  0  0  0  0  0
   -0.3046   -1.6402   -0.1202 C   0  0  1  0  0  0  0  0  0  0  0  0
   -1.2922   -0.8163   -0.7865 N   0  0  0  0  0  0  0  0  0  0  0  0
   -2.2521   -0.0261   -0.0861 C   0  0  0  0  0  0  0  0  0  0  0  0
   -2.2374    0.0639    1.3140 C   0  0  0  0  0  0  0  0  0  0  0  0
   -3.1777    0.8409    2.0036 C   0  0  0  0  0  0  0  0  0  0  0  0
   -4.1644    1.5443    1.3180 C   0  0  0  0  0  0  0  0  0  0  0  0
   -5.0179    2.2597    2.1088 O   0  0  0  0  0  0  0  0  0  0  0  0
   -6.0995    2.9139    1.4578 C   0  0  0  0  0  0  0  0  0  0  0  0
   -4.1970    1.4661   -0.0692 C   0  0  0  0  0  0  0  0  0  0  0  0
   -3.2516    0.6896   -0.7591 C   0  0  0  0  0  0  0  0  0  0  0  0
   -1.1463   -0.9050   -2.1749 C   0  0  0  0  0  0  0  0  0  0  0  0
   -1.7372   -0.3015   -3.0582 O   0  0  0  0  0  0  0  0  0  0  0  0
   -0.0485   -1.9253   -2.4341 C   0  0  2  0  0  0  0  0  0  0  0  0
   -0.4521   -3.0133   -3.4210 C   0  0  0  0  0  0  0  0  0  0  0  0
   -0.4607   -4.2947   -2.5997 C   0  0  0  0  0  0  0  0  0  0  0  0
   -0.6751   -3.8061   -1.1808 C   0  0  0  0  0  0  0  0  0  0  0  0
    0.1594   -2.5991   -1.1359 N   0  0  0  0  0  0  0  0  0  0  0  0
    1.1974    0.4528    0.0866 C   0  0  0  0  0  0  0  0  0  0  0  0
    2.3072    1.1214    0.6256 C   0  0  0  0  0  0  0  0  0  0  0  0
    2.5971    2.4300    0.3404 O   0  0  0  0  0  0  0  0  0  0  0  0
    1.4890    3.2645    0.0158 C   0  0  0  0  0  0  0  0  0  0  0  0
    7.2703    2.0862    1.0689 H   0  0  0  0  0  0  0  0  0  0  0  0
    6.6673    1.8849    2.7332 H   0  0  0  0  0  0  0  0  0  0  0  0
    6.8627    0.4706    1.7025 H   0  0  0  0  0  0  0  0  0  0  0  0
    5.0898    1.3344    0.1689 H   0  0  0  0  0  0  0  0  0  0  0  0
    4.8732    2.7489    1.2538 H   0  0  0  0  0  0  0  0  0  0  0  0
    3.5375   -1.4143    2.5366 H   0  0  0  0  0  0  0  0  0  0  0  0
    1.5670   -2.5696    1.6152 H   0  0  0  0  0  0  0  0  0  0  0  0
   -0.7823   -2.1764    0.7108 H   0  0  0  0  0  0  0  0  0  0  0  0
   -1.4938   -0.4467    1.9186 H   0  0  0  0  0  0  0  0  0  0  0  0
   -3.1351    0.8954    3.0895 H   0  0  0  0  0  0  0  0  0  0  0  0
   -6.7394    2.1969    0.9332 H   0  0  0  0  0  0  0  0  0  0  0  0
   -5.7377    3.6910    0.7764 H   0  0  0  0  0  0  0  0  0  0  0  0
   -6.7067    3.4020    2.2267 H   0  0  0  0  0  0  0  0  0  0  0  0
   -4.9421    1.9938   -0.6559 H   0  0  0  0  0  0  0  0  0  0  0  0
   -3.3396    0.6664   -1.8410 H   0  0  0  0  0  0  0  0  0  0  0  0
    0.8553   -1.3935   -2.7505 H   0  0  0  0  0  0  0  0  0  0  0  0
    0.2635   -3.0979   -4.2461 H   0  0  0  0  0  0  0  0  0  0  0  0
   -1.4442   -2.8343   -3.8501 H   0  0  0  0  0  0  0  0  0  0  0  0
    0.5081   -4.8025   -2.6884 H   0  0  0  0  0  0  0  0  0  0  0  0
   -1.2398   -4.9901   -2.9263 H   0  0  0  0  0  0  0  0  0  0  0  0
   -1.7401   -3.5933   -1.0194 H   0  0  0  0  0  0  0  0  0  0  0  0
   -0.3517   -4.5465   -0.4428 H   0  0  0  0  0  0  0  0  0  0  0  0
    0.5516    0.9675   -0.6174 H   0  0  0  0  0  0  0  0  0  0  0  0
    0.6570    3.1259    0.7161 H   0  0  0  0  0  0  0  0  0  0  0  0
    1.1675    3.0974   -1.0174 H   0  0  0  0  0  0  0  0  0  0  0  0
    1.8205    4.3042    0.0959 H   0  0  0  0  0  0  0  0  0  0  0  0
  1  2  1  0
  2  3  1  0
  3  4  1  0
  4  5  2  0
  5  6  1  0
  6  7  2  0
  7  8  1  0
  8  9  1  0
  9 10  1  0
 10 11  2  0
 11 12  1  0
 12 13  2  0
 13 14  1  0
 14 15  1  0
 13 16  1  0
 16 17  2  0
  9 18  1  0
 18 19  2  0
 18 20  1  0
 20 21  1  0
 21 22  1  0
 22 23  1  0
 23 24  1  0
  7 25  1  0
 25 26  2  0
 26 27  1  0
 27 28  1  0
 26  4  1  0
 24  8  1  0
 17 10  1  0
 24 20  1  0
  1 29  1  0
  1 30  1  0
  1 31  1  0
  2 32  1  0
  2 33  1  0
  5 34  1  0
  6 35  1  0
  8 36  1  1
 11 37  1  0
 12 38  1  0
 15 39  1  0
 15 40  1  0
 15 41  1  0
 16 42  1  0
 17 43  1  0
 20 44  1  6
 21 45  1  0
 21 46  1  0
 22 47  1  0
 22 48  1  0
 23 49  1  0
 23 50  1  0
 25 51  1  0
 28 52  1  0
 28 53  1  0
 28 54  1  0
M  END
$$$$
