
     RDKit          3D

 29 30  0  0  0  0  0  0  0  0999 V2000
    4.4698   -1.4834   -0.4399 C   0  0  0  0  0  0  0  0  0  0  0  0
    4.3281   -0.2010    0.1597 O   0  0  0  0  0  0  0  0  0  0  0  0
    3.0561    0.2809    0.3017 C   0  0  0  0  0  0  0  0  0  0  0  0
    2.9728    1.5257    0.9245 C   0  0  0  0  0  0  0  0  0  0  0  0
    1.7349    2.1274    1.1415 C   0  0  0  0  0  0  0  0  0  0  0  0
    0.5622    1.4924    0.7259 C   0  0  0  0  0  0  0  0  0  0  0  0
    0.6253    0.2533    0.0790 C   0  0  0  0  0  0  0  0  0  0  0  0
   -0.5432   -0.4376   -0.3601 N   0  0  0  0  0  0  0  0  0  0  0  0
   -0.4581   -1.7541   -0.6782 N   0  0  0  0  0  0  0  0  0  0  0  0
   -1.6696   -2.2201   -0.9201 N   0  0  0  0  0  0  0  0  0  0  0  0
   -2.5580   -1.1873   -0.8153 C   0  0  0  0  0  0  0  0  0  0  0  0
   -3.9845   -1.3931   -1.0356 C   0  0  0  0  0  0  0  0  0  0  0  0
   -4.8285   -0.5299   -0.3855 N   0  0  0  0  0  0  0  0  0  0  0  0
   -4.4518   -2.3013   -1.7146 O   0  0  0  0  0  0  0  0  0  0  0  0
   -1.8596   -0.0150   -0.5376 C   0  0  0  0  0  0  0  0  0  0  0  0
   -2.3275    1.3917   -0.5359 C   0  0  0  0  0  0  0  0  0  0  0  0
    1.8838   -0.3544   -0.1149 C   0  0  0  0  0  0  0  0  0  0  0  0
    3.9666   -2.2546    0.1526 H   0  0  0  0  0  0  0  0  0  0  0  0
    5.5368   -1.7251   -0.4627 H   0  0  0  0  0  0  0  0  0  0  0  0
    4.1079   -1.4773   -1.4733 H   0  0  0  0  0  0  0  0  0  0  0  0
    3.8816    2.0250    1.2525 H   0  0  0  0  0  0  0  0  0  0  0  0
    1.6856    3.0890    1.6470 H   0  0  0  0  0  0  0  0  0  0  0  0
   -0.3730    1.9824    0.9652 H   0  0  0  0  0  0  0  0  0  0  0  0
   -4.5068   -0.0106    0.4177 H   0  0  0  0  0  0  0  0  0  0  0  0
   -5.8048   -0.7945   -0.4100 H   0  0  0  0  0  0  0  0  0  0  0  0
   -2.5740    1.7189    0.4784 H   0  0  0  0  0  0  0  0  0  0  0  0
   -1.5834    2.0669   -0.9689 H   0  0  0  0  0  0  0  0  0  0  0  0
   -3.2263    1.5073   -1.1505 H   0  0  0  0  0  0  0  0  0  0  0  0
    1.9377   -1.3217   -0.6069 H   0  0  0  0  0  0  0  0  0  0  0  0
  1  2  1  0
  2  3  1  0
  3  4  2  0
  4  5  1  0
  5  6  2  0
  6  7  1  0
  7  8  1  0
  8  9  1  0
  9 10  2  0
 10 11  1  0
 11 12  1  0
 12 13  1  0
 12 14  2  0
 11 15  2  0
 15 16  1  0
  7 17  2  0
 17  3  1  0
 15  8  1  0
  1 18  1  0
  1 19  1  0
  1 20  1  0
  4 21  1  0
  5 22  1  0
  6 23  1  0
 13 24  1  0
 13 25  1  0
 16 26  1  0
 16 27  1  0
 16 28  1  0
 17 29  1  0
M  END
$$$$
