
     RDKit          3D

 61 63  0  0  0  0  0  0  0  0999 V2000
   -1.8781   -5.6231   -1.8494 C   0  0  0  0  0  0  0  0  0  0  0  0
   -2.1761   -4.9042   -0.6585 O   0  0  0  0  0  0  0  0  0  0  0  0
   -1.9427   -3.5597   -0.6791 C   0  0  0  0  0  0  0  0  0  0  0  0
   -2.0447   -2.9318    0.5623 C   0  0  0  0  0  0  0  0  0  0  0  0
   -1.8141   -1.5584    0.6939 C   0  0  0  0  0  0  0  0  0  0  0  0
   -1.4859   -0.7908   -0.4221 C   0  0  0  0  0  0  0  0  0  0  0  0
   -1.1952    0.5896   -0.3746 N   0  0  0  0  0  0  0  0  0  0  0  0
   -1.0252    1.3629    0.7612 C   0  0  0  0  0  0  0  0  0  0  0  0
   -1.1789    0.9979    1.9265 O   0  0  0  0  0  0  0  0  0  0  0  0
   -0.5534    2.7995    0.4625 C   0  0  0  0  0  0  0  0  0  0  0  0
   -1.7419    3.7478    0.6780 C   0  0  0  0  0  0  0  0  0  0  0  0
   -1.5938    5.1377    0.0243 C   0  0  0  0  0  0  0  0  0  0  0  0
   -2.9253    5.8955    0.1339 C   0  0  0  0  0  0  0  0  0  0  0  0
   -0.4770    5.9805    0.6405 C   0  0  0  0  0  0  0  0  0  0  0  0
    0.5277    3.0964    1.4259 N   0  0  0  0  0  0  0  0  0  0  0  0
    2.1237    2.8191    0.9841 S   0  0  0  0  0  6  0  0  0  0  0  0
    2.9321    3.0135    2.1663 O   0  0  0  0  0  0  0  0  0  0  0  0
    2.3609    3.5564   -0.2394 O   0  0  0  0  0  0  0  0  0  0  0  0
    2.1696    1.0891    0.5800 C   0  0  0  0  0  0  0  0  0  0  0  0
    2.3665    0.6887   -0.7510 C   0  0  0  0  0  0  0  0  0  0  0  0
    2.3706   -0.6705   -1.0891 C   0  0  0  0  0  0  0  0  0  0  0  0
    2.1738   -1.6150   -0.0929 C   0  0  0  0  0  0  0  0  0  0  0  0
    2.0076   -1.1972    1.2339 C   0  0  0  0  0  0  0  0  0  0  0  0
    2.0148    0.1445    1.5947 C   0  0  0  0  0  0  0  0  0  0  0  0
    1.8270   -2.3566    2.1614 C   0  0  0  0  0  0  0  0  0  0  0  0
    1.8023   -3.5351    1.1904 C   0  0  0  0  0  0  0  0  0  0  0  0
    2.0840   -3.0182   -0.1578 N   0  0  0  0  0  0  0  0  0  0  0  0
    2.1398   -3.9085   -1.2079 C   0  0  0  0  0  0  0  0  0  0  0  0
    2.4217   -3.4089   -2.5954 C   0  0  0  0  0  0  0  0  0  0  0  0
    1.9625   -5.1197   -1.0398 O   0  0  0  0  0  0  0  0  0  0  0  0
   -1.4153   -1.4172   -1.6741 C   0  0  0  0  0  0  0  0  0  0  0  0
   -1.6367   -2.7937   -1.8018 C   0  0  0  0  0  0  0  0  0  0  0  0
   -0.8347   -5.4853   -2.1481 H   0  0  0  0  0  0  0  0  0  0  0  0
   -2.5599   -5.3386   -2.6551 H   0  0  0  0  0  0  0  0  0  0  0  0
   -2.0325   -6.6863   -1.6459 H   0  0  0  0  0  0  0  0  0  0  0  0
   -2.2949   -3.5188    1.4436 H   0  0  0  0  0  0  0  0  0  0  0  0
   -1.8998   -1.1273    1.6868 H   0  0  0  0  0  0  0  0  0  0  0  0
   -0.9859    1.0198   -1.2639 H   0  0  0  0  0  0  0  0  0  0  0  0
   -0.1937    2.8820   -0.5678 H   0  0  0  0  0  0  0  0  0  0  0  0
   -2.6398    3.2743    0.2530 H   0  0  0  0  0  0  0  0  0  0  0  0
   -1.9449    3.8640    1.7527 H   0  0  0  0  0  0  0  0  0  0  0  0
   -1.3760    5.0041   -1.0445 H   0  0  0  0  0  0  0  0  0  0  0  0
   -2.8565    6.8828   -0.3328 H   0  0  0  0  0  0  0  0  0  0  0  0
   -3.2223    6.0314    1.1835 H   0  0  0  0  0  0  0  0  0  0  0  0
   -3.7262    5.3478   -0.3777 H   0  0  0  0  0  0  0  0  0  0  0  0
   -0.4890    6.9978    0.2364 H   0  0  0  0  0  0  0  0  0  0  0  0
   -0.5796    6.0503    1.7280 H   0  0  0  0  0  0  0  0  0  0  0  0
    0.5069    5.5632    0.4119 H   0  0  0  0  0  0  0  0  0  0  0  0
    0.3275    2.8323    2.3959 H   0  0  0  0  0  0  0  0  0  0  0  0
    2.5172    1.4309   -1.5338 H   0  0  0  0  0  0  0  0  0  0  0  0
    2.5243   -0.9257   -2.1261 H   0  0  0  0  0  0  0  0  0  0  0  0
    1.8791    0.4436    2.6308 H   0  0  0  0  0  0  0  0  0  0  0  0
    0.8927   -2.2841    2.7263 H   0  0  0  0  0  0  0  0  0  0  0  0
    2.6702   -2.4350    2.8543 H   0  0  0  0  0  0  0  0  0  0  0  0
    2.5530   -4.2887    1.4550 H   0  0  0  0  0  0  0  0  0  0  0  0
    0.8238   -4.0294    1.1824 H   0  0  0  0  0  0  0  0  0  0  0  0
    2.4918   -4.2641   -3.2786 H   0  0  0  0  0  0  0  0  0  0  0  0
    1.5993   -2.7770   -2.9432 H   0  0  0  0  0  0  0  0  0  0  0  0
    3.3834   -2.8893   -2.6270 H   0  0  0  0  0  0  0  0  0  0  0  0
   -1.1681   -0.8489   -2.5689 H   0  0  0  0  0  0  0  0  0  0  0  0
   -1.5655   -3.2363   -2.7906 H   0  0  0  0  0  0  0  0  0  0  0  0
  1  2  1  0
  2  3  1  0
  3  4  2  0
  4  5  1  0
  5  6  2  0
  6  7  1  0
  7  8  1  0
  8  9  2  0
  8 10  1  0
 10 11  1  0
 11 12  1  0
 12 13  1  0
 12 14  1  0
 10 15  1  0
 15 16  1  0
 16 17  2  0
 16 18  2  0
 16 19  1  0
 19 20  2  0
 20 21  1  0
 21 22  2  0
 22 23  1  0
 23 24  2  0
 23 25  1  0
 25 26  1  0
 26 27  1  0
 27 28  1  0
 28 29  1  0
 28 30  2  0
  6 31  1  0
 31 32  2  0
 32  3  1  0
 24 19  1  0
 27 22  1  0
  1 33  1  0
  1 34  1  0
  1 35  1  0
  4 36  1  0
  5 37  1  0
  7 38  1  0
 10 39  1  0
 11 40  1  0
 11 41  1  0
 12 42  1  0
 13 43  1  0
 13 44  1  0
 13 45  1  0
 14 46  1  0
 14 47  1  0
 14 48  1  0
 15 49  1  0
 20 50  1  0
 21 51  1  0
 24 52  1  0
 25 53  1  0
 25 54  1  0
 26 55  1  0
 26 56  1  0
 29 57  1  0
 29 58  1  0
 29 59  1  0
 31 60  1  0
 32 61  1  0
M  END
$$$$
