
     RDKit          3D

 30 31  0  0  0  0  0  0  0  0999 V2000
    5.6062   -0.0276   -1.1386 C   0  0  0  0  0  0  0  0  0  0  0  0
    4.1222   -0.0484   -1.3952 C   0  0  0  0  0  0  0  0  0  0  0  0
    3.6744   -0.1064   -2.5388 O   0  0  0  0  0  0  0  0  0  0  0  0
    3.1844    0.0025   -0.2346 C   0  0  0  0  0  0  0  0  0  0  0  0
    3.6354    0.0691    1.0860 C   0  0  0  0  0  0  0  0  0  0  0  0
    2.7122    0.1145    2.1307 C   0  0  0  0  0  0  0  0  0  0  0  0
    1.3394    0.0939    1.8654 C   0  0  0  0  0  0  0  0  0  0  0  0
    0.8725    0.0276    0.5524 C   0  0  0  0  0  0  0  0  0  0  0  0
   -0.4910    0.0025    0.1951 N   0  0  0  0  0  0  0  0  0  0  0  0
   -1.5987    0.0368    1.0307 C   0  0  0  0  0  0  0  0  0  0  0  0
   -1.5453    0.0964    2.2545 O   0  0  0  0  0  0  0  0  0  0  0  0
   -2.8546   -0.0050    0.3165 C   0  0  0  0  0  0  0  0  0  0  0  0
   -2.8321   -0.0710   -1.0480 O   0  0  0  0  0  0  0  0  0  0  0  0
   -4.1217   -0.1022   -1.5409 N   0  0  0  0  0  0  0  0  0  0  0  0
   -4.9211   -0.0547   -0.4674 C   0  0  0  0  0  0  0  0  0  0  0  0
   -6.3932   -0.0709   -0.6306 C   0  0  0  0  0  0  0  0  0  0  0  0
   -4.1667    0.0076    0.7286 C   0  0  0  0  0  0  0  0  0  0  0  0
   -4.7996    0.0802    2.2996 Cl  0  0  0  0  0  0  0  0  0  0  0  0
    1.8042   -0.0178   -0.4928 C   0  0  0  0  0  0  0  0  0  0  0  0
    5.9011   -0.8991   -0.5485 H   0  0  0  0  0  0  0  0  0  0  0  0
    5.8910    0.9002   -0.6357 H   0  0  0  0  0  0  0  0  0  0  0  0
    6.1366   -0.0710   -2.0951 H   0  0  0  0  0  0  0  0  0  0  0  0
    4.6930    0.0870    1.3313 H   0  0  0  0  0  0  0  0  0  0  0  0
    3.0575    0.1664    3.1612 H   0  0  0  0  0  0  0  0  0  0  0  0
    0.6633    0.1312    2.7143 H   0  0  0  0  0  0  0  0  0  0  0  0
   -0.6912   -0.0468   -0.7988 H   0  0  0  0  0  0  0  0  0  0  0  0
   -6.8251   -0.9378   -0.1203 H   0  0  0  0  0  0  0  0  0  0  0  0
   -6.6819   -0.1237   -1.6856 H   0  0  0  0  0  0  0  0  0  0  0  0
   -6.8351    0.8363   -0.2063 H   0  0  0  0  0  0  0  0  0  0  0  0
    1.4640   -0.0698   -1.5259 H   0  0  0  0  0  0  0  0  0  0  0  0
  1  2  1  0
  2  3  2  0
  2  4  1  0
  4  5  2  0
  5  6  1  0
  6  7  2  0
  7  8  1  0
  8  9  1  0
  9 10  1  0
 10 11  2  0
 10 12  1  0
 12 13  1  0
 13 14  1  0
 14 15  2  0
 15 16  1  0
 15 17  1  0
 17 18  1  0
  8 19  2  0
 19  4  1  0
 17 12  2  0
  1 20  1  0
  1 21  1  0
  1 22  1  0
  5 23  1  0
  6 24  1  0
  7 25  1  0
  9 26  1  0
 16 27  1  0
 16 28  1  0
 16 29  1  0
 19 30  1  0
M  END
$$$$
