
     RDKit          3D

 45 47  0  0  0  0  0  0  0  0999 V2000
    4.5806    2.4798    0.8358 C   0  0  0  0  0  0  0  0  0  0  0  0
    4.8850    1.5373   -0.3186 C   0  0  0  0  0  0  0  0  0  0  0  0
    4.2863    0.1706   -0.0990 C   0  0  0  0  0  0  0  0  0  0  0  0
    5.0270   -0.8355    0.5303 C   0  0  0  0  0  0  0  0  0  0  0  0
    4.4616   -2.0897    0.7465 C   0  0  0  0  0  0  0  0  0  0  0  0
    3.1506   -2.3450    0.3393 C   0  0  0  0  0  0  0  0  0  0  0  0
    2.3894   -1.3502   -0.2872 C   0  0  0  0  0  0  0  0  0  0  0  0
    1.0709   -1.6900   -0.6589 N   0  0  0  0  0  0  0  0  0  0  0  0
    0.1385   -0.8862   -1.2941 C   0  0  0  0  0  0  0  0  0  0  0  0
    0.3138    0.2589   -1.6910 O   0  0  0  0  0  0  0  0  0  0  0  0
   -1.1776   -1.6178   -1.5149 C   0  0  0  0  0  0  0  0  0  0  0  0
   -2.3604   -0.6867   -1.8109 C   0  0  0  0  0  0  0  0  0  0  0  0
   -2.9916   -0.1203   -0.5587 C   0  0  0  0  0  0  0  0  0  0  0  0
   -3.9828   -0.9768    0.2227 C   0  0  0  0  0  0  0  0  0  0  0  0
   -4.3950   -2.3199   -0.3474 C   0  0  0  0  0  0  0  0  0  0  0  0
   -4.5450   -0.6454    1.3461 N   0  0  0  0  0  0  0  0  0  0  0  0
   -4.2466    0.5827    1.8450 C   0  0  0  0  0  0  0  0  0  0  0  0
   -4.6660    1.1466    2.9565 N   0  0  0  0  0  0  0  0  0  0  0  0
   -4.0815    2.3716    2.9273 C   0  0  0  0  0  0  0  0  0  0  0  0
   -3.3147    2.6263    1.8693 N   0  0  0  0  0  0  0  0  0  0  0  0
   -3.4061    1.4682    1.1637 N   0  0  0  0  0  0  0  0  0  0  0  0
   -2.7854    1.1183   -0.0466 C   0  0  0  0  0  0  0  0  0  0  0  0
   -1.9151    2.1849   -0.6547 C   0  0  0  0  0  0  0  0  0  0  0  0
    2.9651   -0.0954   -0.4993 C   0  0  0  0  0  0  0  0  0  0  0  0
    4.9828    2.0949    1.7791 H   0  0  0  0  0  0  0  0  0  0  0  0
    5.0286    3.4613    0.6511 H   0  0  0  0  0  0  0  0  0  0  0  0
    3.5015    2.6181    0.9624 H   0  0  0  0  0  0  0  0  0  0  0  0
    4.5024    1.9608   -1.2552 H   0  0  0  0  0  0  0  0  0  0  0  0
    5.9707    1.4492   -0.4477 H   0  0  0  0  0  0  0  0  0  0  0  0
    6.0470   -0.6452    0.8565 H   0  0  0  0  0  0  0  0  0  0  0  0
    5.0413   -2.8684    1.2351 H   0  0  0  0  0  0  0  0  0  0  0  0
    2.7366   -3.3326    0.5235 H   0  0  0  0  0  0  0  0  0  0  0  0
    0.7857   -2.6338   -0.4308 H   0  0  0  0  0  0  0  0  0  0  0  0
   -1.3861   -2.2538   -0.6477 H   0  0  0  0  0  0  0  0  0  0  0  0
   -1.0238   -2.2763   -2.3789 H   0  0  0  0  0  0  0  0  0  0  0  0
   -3.1184   -1.2488   -2.3687 H   0  0  0  0  0  0  0  0  0  0  0  0
   -2.0620    0.1059   -2.5035 H   0  0  0  0  0  0  0  0  0  0  0  0
   -3.5258   -2.9634   -0.4924 H   0  0  0  0  0  0  0  0  0  0  0  0
   -5.0798   -2.8287    0.3387 H   0  0  0  0  0  0  0  0  0  0  0  0
   -4.9150   -2.1731   -1.2979 H   0  0  0  0  0  0  0  0  0  0  0  0
   -4.2204    3.1097    3.7072 H   0  0  0  0  0  0  0  0  0  0  0  0
   -2.4513    3.1399   -0.6986 H   0  0  0  0  0  0  0  0  0  0  0  0
   -1.0101    2.3254   -0.0543 H   0  0  0  0  0  0  0  0  0  0  0  0
   -1.6113    1.9675   -1.6797 H   0  0  0  0  0  0  0  0  0  0  0  0
    2.4062    0.7053   -0.9742 H   0  0  0  0  0  0  0  0  0  0  0  0
  1  2  1  0
  2  3  1  0
  3  4  2  0
  4  5  1  0
  5  6  2  0
  6  7  1  0
  7  8  1  0
  8  9  1  0
  9 10  2  0
  9 11  1  0
 11 12  1  0
 12 13  1  0
 13 14  1  0
 14 15  1  0
 14 16  2  0
 16 17  1  0
 17 18  2  0
 18 19  1  0
 19 20  2  0
 20 21  1  0
 21 22  1  0
 22 23  1  0
  7 24  2  0
 24  3  1  0
 22 13  2  0
 21 17  1  0
  1 25  1  0
  1 26  1  0
  1 27  1  0
  2 28  1  0
  2 29  1  0
  4 30  1  0
  5 31  1  0
  6 32  1  0
  8 33  1  0
 11 34  1  0
 11 35  1  0
 12 36  1  0
 12 37  1  0
 15 38  1  0
 15 39  1  0
 15 40  1  0
 19 41  1  0
 23 42  1  0
 23 43  1  0
 23 44  1  0
 24 45  1  0
M  END
$$$$
