
     RDKit          3D

 58 60  0  0  0  0  0  0  0  0999 V2000
   -3.5952   -2.2580   -0.7195 C   0  0  0  0  0  0  0  0  0  0  0  0
   -3.1615   -1.0350   -1.5519 C   0  0  0  0  0  0  0  0  0  0  0  0
   -2.9624   -1.5263   -3.0017 C   0  0  0  0  0  0  0  0  0  0  0  0
   -1.8181   -0.4591   -1.0417 C   0  0  0  0  0  0  0  0  0  0  0  0
   -1.9533    0.7605   -0.1173 C   0  0  0  0  0  0  0  0  0  0  0  0
   -0.8401    0.8155    0.8276 N   0  0  0  0  0  0  0  0  0  0  0  0
   -0.4253    1.9916    1.4162 C   0  0  0  0  0  0  0  0  0  0  0  0
   -0.9831    3.0684    1.2087 O   0  0  0  0  0  0  0  0  0  0  0  0
    0.7193    1.8868    2.4079 C   0  0  0  0  0  0  0  0  0  0  0  0
    1.6983    0.8585    2.0811 N   0  0  0  0  0  0  0  0  0  0  0  0
    1.8856   -0.2904    2.8062 C   0  0  0  0  0  0  0  0  0  0  0  0
    2.8817   -1.0169    2.1963 C   0  0  0  0  0  0  0  0  0  0  0  0
    3.3204   -0.2857    1.0543 C   0  0  0  0  0  0  0  0  0  0  0  0
    4.2913   -0.5092    0.0517 C   0  0  0  0  0  0  0  0  0  0  0  0
    5.1088   -1.6832    0.0723 N   0  0  0  0  0  0  0  0  0  0  0  0
    6.5776   -1.5627    0.9102 S   0  0  0  0  0  6  0  0  0  0  0  0
    7.7308   -1.5574   -0.4444 C   0  0  0  0  0  0  0  0  0  0  0  0
    6.6749   -0.3002    1.6067 O   0  0  0  0  0  0  0  0  0  0  0  0
    6.7248   -2.8247    1.6050 O   0  0  0  0  0  0  0  0  0  0  0  0
    4.5053    0.4570   -0.9363 C   0  0  0  0  0  0  0  0  0  0  0  0
    3.7436    1.6224   -0.9588 C   0  0  0  0  0  0  0  0  0  0  0  0
    2.7612    1.8603    0.0074 C   0  0  0  0  0  0  0  0  0  0  0  0
    2.5695    0.8943    1.0095 C   0  0  0  0  0  0  0  0  0  0  0  0
   -3.2951    0.7644    0.6097 C   0  0  0  0  0  0  0  0  0  0  0  0
   -4.4695    0.7708   -0.3899 C   0  0  0  0  0  0  0  0  0  0  0  0
   -5.7452    0.2708    0.3128 C   0  0  0  0  0  0  0  0  0  0  0  0
   -4.7367    2.2096   -0.8776 C   0  0  0  0  0  0  0  0  0  0  0  0
   -4.2121   -0.0185   -1.6019 N   0  0  0  0  0  0  0  0  0  0  0  0
   -3.6783   -2.0367    0.3467 H   0  0  0  0  0  0  0  0  0  0  0  0
   -4.5642   -2.6458   -1.0563 H   0  0  0  0  0  0  0  0  0  0  0  0
   -2.8689   -3.0741   -0.8176 H   0  0  0  0  0  0  0  0  0  0  0  0
   -2.1561   -2.2666   -3.0587 H   0  0  0  0  0  0  0  0  0  0  0  0
   -3.8708   -1.9976   -3.3942 H   0  0  0  0  0  0  0  0  0  0  0  0
   -2.6996   -0.7012   -3.6733 H   0  0  0  0  0  0  0  0  0  0  0  0
   -1.1751   -0.1583   -1.8813 H   0  0  0  0  0  0  0  0  0  0  0  0
   -1.2624   -1.2591   -0.5316 H   0  0  0  0  0  0  0  0  0  0  0  0
   -1.8849    1.6663   -0.7327 H   0  0  0  0  0  0  0  0  0  0  0  0
   -0.3938   -0.0542    1.0947 H   0  0  0  0  0  0  0  0  0  0  0  0
    0.3068    1.6733    3.3991 H   0  0  0  0  0  0  0  0  0  0  0  0
    1.2583    2.8389    2.4480 H   0  0  0  0  0  0  0  0  0  0  0  0
    1.3107   -0.4959    3.7005 H   0  0  0  0  0  0  0  0  0  0  0  0
    3.2678   -1.9667    2.5441 H   0  0  0  0  0  0  0  0  0  0  0  0
    4.6197   -2.5132    0.4133 H   0  0  0  0  0  0  0  0  0  0  0  0
    7.5708   -0.6623   -1.0481 H   0  0  0  0  0  0  0  0  0  0  0  0
    7.5883   -2.4628   -1.0370 H   0  0  0  0  0  0  0  0  0  0  0  0
    8.7394   -1.5440   -0.0245 H   0  0  0  0  0  0  0  0  0  0  0  0
    5.2573    0.2967   -1.7018 H   0  0  0  0  0  0  0  0  0  0  0  0
    3.9141    2.3614   -1.7388 H   0  0  0  0  0  0  0  0  0  0  0  0
    2.1762    2.7755   -0.0226 H   0  0  0  0  0  0  0  0  0  0  0  0
   -3.3640    1.6351    1.2750 H   0  0  0  0  0  0  0  0  0  0  0  0
   -3.3454   -0.1063    1.2752 H   0  0  0  0  0  0  0  0  0  0  0  0
   -5.6459   -0.7656    0.6514 H   0  0  0  0  0  0  0  0  0  0  0  0
   -6.6159    0.3184   -0.3516 H   0  0  0  0  0  0  0  0  0  0  0  0
   -5.9706    0.8836    1.1934 H   0  0  0  0  0  0  0  0  0  0  0  0
   -4.9550    2.8768   -0.0355 H   0  0  0  0  0  0  0  0  0  0  0  0
   -3.8774    2.6268   -1.4148 H   0  0  0  0  0  0  0  0  0  0  0  0
   -5.5979    2.2490   -1.5563 H   0  0  0  0  0  0  0  0  0  0  0  0
   -5.0786   -0.3950   -1.9867 H   0  0  0  0  0  0  0  0  0  0  0  0
  1  2  1  0
  2  3  1  0
  2  4  1  0
  4  5  1  0
  5  6  1  0
  6  7  1  0
  7  8  2  0
  7  9  1  0
  9 10  1  0
 10 11  1  0
 11 12  2  0
 12 13  1  0
 13 14  2  0
 14 15  1  0
 15 16  1  0
 16 17  1  0
 16 18  2  0
 16 19  2  0
 14 20  1  0
 20 21  2  0
 21 22  1  0
 22 23  2  0
  5 24  1  0
 24 25  1  0
 25 26  1  0
 25 27  1  0
 25 28  1  0
 28  2  1  0
 23 10  1  0
 23 13  1  0
  1 29  1  0
  1 30  1  0
  1 31  1  0
  3 32  1  0
  3 33  1  0
  3 34  1  0
  4 35  1  0
  4 36  1  0
  5 37  1  0
  6 38  1  0
  9 39  1  0
  9 40  1  0
 11 41  1  0
 12 42  1  0
 15 43  1  0
 17 44  1  0
 17 45  1  0
 17 46  1  0
 20 47  1  0
 21 48  1  0
 22 49  1  0
 24 50  1  0
 24 51  1  0
 26 52  1  0
 26 53  1  0
 26 54  1  0
 27 55  1  0
 27 56  1  0
 27 57  1  0
 28 58  1  0
M  END
$$$$
