
     RDKit          3D

 42 44  0  0  0  0  0  0  0  0999 V2000
    0.0159    2.3646    1.5299 C   0  0  0  0  0  0  0  0  0  0  0  0
   -0.8738    1.3664    0.8332 C   0  0  0  0  0  0  0  0  0  0  0  0
   -2.2553    1.6462    0.7768 C   0  0  0  0  0  0  0  0  0  0  0  0
   -3.0722    0.7385    0.1414 C   0  0  0  0  0  0  0  0  0  0  0  0
   -2.5642   -0.4226   -0.4323 C   0  0  0  0  0  0  0  0  0  0  0  0
   -1.2190   -0.7279   -0.3961 C   0  0  0  0  0  0  0  0  0  0  0  0
   -0.3528    0.1709    0.2452 C   0  0  0  0  0  0  0  0  0  0  0  0
    1.0409   -0.0635    0.3222 N   0  0  0  0  0  0  0  0  0  0  0  0
    1.7422   -1.1638   -0.1332 C   0  0  0  0  0  0  0  0  0  0  0  0
    1.2979   -2.1863   -0.6364 O   0  0  0  0  0  0  0  0  0  0  0  0
    3.2076   -1.0659    0.0865 C   0  0  0  0  0  0  0  0  0  0  0  0
    3.7949   -2.0541    0.8881 C   0  0  0  0  0  0  0  0  0  0  0  0
    5.1583   -2.0036    1.1708 C   0  0  0  0  0  0  0  0  0  0  0  0
    5.9356   -0.9710    0.6510 C   0  0  0  0  0  0  0  0  0  0  0  0
    5.3568    0.0039   -0.1659 C   0  0  0  0  0  0  0  0  0  0  0  0
    3.9884   -0.0380   -0.4763 C   0  0  0  0  0  0  0  0  0  0  0  0
    3.4131    1.0095   -1.3876 C   0  0  0  0  0  0  0  0  0  0  0  0
   -3.6355   -1.1288   -0.9958 N   0  0  0  0  0  0  0  0  0  0  0  0
   -3.5284   -2.3845   -1.6805 C   0  0  0  0  0  0  0  0  0  0  0  0
   -4.8292   -0.4091   -0.7751 C   0  0  0  0  0  0  0  0  0  0  0  0
   -5.9553   -0.7244   -1.1257 O   0  0  0  0  0  0  0  0  0  0  0  0
   -4.4568    0.7538   -0.0645 N   0  0  0  0  0  0  0  0  0  0  0  0
   -5.3520    1.7823    0.3769 C   0  0  0  0  0  0  0  0  0  0  0  0
   -0.5561    3.2132    1.9201 H   0  0  0  0  0  0  0  0  0  0  0  0
    0.7579    2.7640    0.8310 H   0  0  0  0  0  0  0  0  0  0  0  0
    0.5225    1.8940    2.3786 H   0  0  0  0  0  0  0  0  0  0  0  0
   -2.6661    2.5470    1.2188 H   0  0  0  0  0  0  0  0  0  0  0  0
   -0.8700   -1.6404   -0.8605 H   0  0  0  0  0  0  0  0  0  0  0  0
    1.5929    0.6373    0.7981 H   0  0  0  0  0  0  0  0  0  0  0  0
    3.1869   -2.8607    1.2929 H   0  0  0  0  0  0  0  0  0  0  0  0
    5.6136   -2.7692    1.7941 H   0  0  0  0  0  0  0  0  0  0  0  0
    7.0000   -0.9307    0.8714 H   0  0  0  0  0  0  0  0  0  0  0  0
    5.9897    0.7903   -0.5734 H   0  0  0  0  0  0  0  0  0  0  0  0
    4.1931    1.4554   -2.0145 H   0  0  0  0  0  0  0  0  0  0  0  0
    2.6729    0.5770   -2.0682 H   0  0  0  0  0  0  0  0  0  0  0  0
    2.9485    1.8083   -0.8018 H   0  0  0  0  0  0  0  0  0  0  0  0
   -2.8715   -2.2694   -2.5475 H   0  0  0  0  0  0  0  0  0  0  0  0
   -3.1156   -3.1342   -0.9993 H   0  0  0  0  0  0  0  0  0  0  0  0
   -4.5128   -2.7168   -2.0212 H   0  0  0  0  0  0  0  0  0  0  0  0
   -5.0622    2.7340   -0.0779 H   0  0  0  0  0  0  0  0  0  0  0  0
   -5.3018    1.8624    1.4666 H   0  0  0  0  0  0  0  0  0  0  0  0
   -6.3787    1.5460    0.0843 H   0  0  0  0  0  0  0  0  0  0  0  0
  1  2  1  0
  2  3  2  0
  3  4  1  0
  4  5  2  0
  5  6  1  0
  6  7  2  0
  7  8  1  0
  8  9  1  0
  9 10  2  0
  9 11  1  0
 11 12  2  0
 12 13  1  0
 13 14  2  0
 14 15  1  0
 15 16  2  0
 16 17  1  0
  5 18  1  0
 18 19  1  0
 18 20  1  0
 20 21  2  0
 20 22  1  0
 22 23  1  0
  7  2  1  0
 16 11  1  0
 22  4  1  0
  1 24  1  0
  1 25  1  0
  1 26  1  0
  3 27  1  0
  6 28  1  0
  8 29  1  0
 12 30  1  0
 13 31  1  0
 14 32  1  0
 15 33  1  0
 17 34  1  0
 17 35  1  0
 17 36  1  0
 19 37  1  0
 19 38  1  0
 19 39  1  0
 23 40  1  0
 23 41  1  0
 23 42  1  0
M  END
$$$$
