
     RDKit          3D

 45 46  0  0  0  0  0  0  0  0999 V2000
    6.5853   -0.3284    0.8205 C   0  0  0  0  0  0  0  0  0  0  0  0
    5.2593   -0.3354    0.0559 C   0  0  0  0  0  0  0  0  0  0  0  0
    5.3544    0.6039   -1.1491 C   0  0  0  0  0  0  0  0  0  0  0  0
    4.1085    0.0550    1.0039 C   0  0  0  0  0  0  0  0  0  0  0  0
    2.7338   -0.1289    0.4033 C   0  0  0  0  0  0  0  0  0  0  0  0
    2.2078   -1.4172    0.2194 C   0  0  0  0  0  0  0  0  0  0  0  0
    0.9425   -1.5936   -0.3426 C   0  0  0  0  0  0  0  0  0  0  0  0
    0.1980   -0.4741   -0.7179 C   0  0  0  0  0  0  0  0  0  0  0  0
   -1.4149   -0.6714   -1.4317 S   0  0  0  0  0  6  0  0  0  0  0  0
   -1.4329    0.0886   -2.6635 O   0  0  0  0  0  0  0  0  0  0  0  0
   -1.7644   -2.0768   -1.4104 O   0  0  0  0  0  0  0  0  0  0  0  0
   -2.4230    0.1179   -0.2991 N   0  0  0  0  0  0  0  0  0  0  0  0
   -2.4783   -0.4823    1.0637 C   0  0  0  0  0  0  0  0  0  0  0  0
   -3.8322   -1.1181    1.3440 C   0  0  0  0  0  0  0  0  0  0  0  0
   -4.9709   -0.1036    1.2460 C   0  0  0  0  0  0  0  0  0  0  0  0
   -4.6657    1.0238    0.2487 C   0  0  0  0  0  0  0  0  0  0  0  0
   -5.9544    1.6113   -0.3211 C   0  0  0  0  0  0  0  0  0  0  0  0
   -3.7418    0.5209   -0.8638 C   0  0  0  0  0  0  0  0  0  0  0  0
    0.7080    0.8152   -0.5472 C   0  0  0  0  0  0  0  0  0  0  0  0
    1.9735    0.9845    0.0153 C   0  0  0  0  0  0  0  0  0  0  0  0
    6.8113    0.6678    1.2161 H   0  0  0  0  0  0  0  0  0  0  0  0
    7.4122   -0.6300    0.1688 H   0  0  0  0  0  0  0  0  0  0  0  0
    6.5528   -1.0285    1.6620 H   0  0  0  0  0  0  0  0  0  0  0  0
    5.0960   -1.3538   -0.3188 H   0  0  0  0  0  0  0  0  0  0  0  0
    4.4552    0.5468   -1.7704 H   0  0  0  0  0  0  0  0  0  0  0  0
    6.2060    0.3352   -1.7834 H   0  0  0  0  0  0  0  0  0  0  0  0
    5.4848    1.6444   -0.8326 H   0  0  0  0  0  0  0  0  0  0  0  0
    4.2341    1.0938    1.3367 H   0  0  0  0  0  0  0  0  0  0  0  0
    4.1564   -0.5540    1.9167 H   0  0  0  0  0  0  0  0  0  0  0  0
    2.7863   -2.2916    0.5110 H   0  0  0  0  0  0  0  0  0  0  0  0
    0.5504   -2.5980   -0.4845 H   0  0  0  0  0  0  0  0  0  0  0  0
   -1.6946   -1.2335    1.2019 H   0  0  0  0  0  0  0  0  0  0  0  0
   -2.2717    0.3134    1.7895 H   0  0  0  0  0  0  0  0  0  0  0  0
   -3.8367   -1.5802    2.3376 H   0  0  0  0  0  0  0  0  0  0  0  0
   -4.0085   -1.9263    0.6227 H   0  0  0  0  0  0  0  0  0  0  0  0
   -5.1554    0.3405    2.2323 H   0  0  0  0  0  0  0  0  0  0  0  0
   -5.8906   -0.6366    0.9746 H   0  0  0  0  0  0  0  0  0  0  0  0
   -4.1467    1.8266    0.7907 H   0  0  0  0  0  0  0  0  0  0  0  0
   -6.6030    1.9757    0.4824 H   0  0  0  0  0  0  0  0  0  0  0  0
   -6.5120    0.8647   -0.8966 H   0  0  0  0  0  0  0  0  0  0  0  0
   -5.7360    2.4546   -0.9848 H   0  0  0  0  0  0  0  0  0  0  0  0
   -3.5736    1.3274   -1.5870 H   0  0  0  0  0  0  0  0  0  0  0  0
   -4.2037   -0.3229   -1.3911 H   0  0  0  0  0  0  0  0  0  0  0  0
    0.1267    1.6825   -0.8525 H   0  0  0  0  0  0  0  0  0  0  0  0
    2.3675    1.9908    0.1417 H   0  0  0  0  0  0  0  0  0  0  0  0
  1  2  1  0
  2  3  1  0
  2  4  1  0
  4  5  1  0
  5  6  2  0
  6  7  1  0
  7  8  2  0
  8  9  1  0
  9 10  2  0
  9 11  2  0
  9 12  1  0
 12 13  1  0
 13 14  1  0
 14 15  1  0
 15 16  1  0
 16 17  1  0
 16 18  1  0
  8 19  1  0
 19 20  2  0
 20  5  1  0
 18 12  1  0
  1 21  1  0
  1 22  1  0
  1 23  1  0
  2 24  1  0
  3 25  1  0
  3 26  1  0
  3 27  1  0
  4 28  1  0
  4 29  1  0
  6 30  1  0
  7 31  1  0
 13 32  1  0
 13 33  1  0
 14 34  1  0
 14 35  1  0
 15 36  1  0
 15 37  1  0
 16 38  1  0
 17 39  1  0
 17 40  1  0
 17 41  1  0
 18 42  1  0
 18 43  1  0
 19 44  1  0
 20 45  1  0
M  END
$$$$
