
     RDKit          3D

 70 73  0  0  0  0  0  0  0  0999 V2000
    0.5243    7.4715   -0.3024 C   0  0  0  0  0  0  0  0  0  0  0  0
    1.6924    6.6772   -0.1450 O   0  0  0  0  0  0  0  0  0  0  0  0
    1.6090    5.3527   -0.4842 C   0  0  0  0  0  0  0  0  0  0  0  0
    0.4477    4.7107   -0.9080 C   0  0  0  0  0  0  0  0  0  0  0  0
    0.4697    3.3417   -1.2280 C   0  0  0  0  0  0  0  0  0  0  0  0
   -0.7795    2.6864   -1.6448 C   0  0  0  0  0  0  0  0  0  0  0  0
   -1.8264    3.3315   -1.6444 O   0  0  0  0  0  0  0  0  0  0  0  0
   -0.7006    1.3464   -1.9930 N   0  0  0  0  0  0  0  0  0  0  0  0
   -1.9429    0.6846   -2.3940 C   0  0  0  0  0  0  0  0  0  0  0  0
   -2.7165    0.1642   -1.1857 C   0  0  0  0  0  0  0  0  0  0  0  0
   -4.0204   -0.4723   -1.6070 C   0  0  0  0  0  0  0  0  0  0  0  0
   -4.3538   -0.6258   -2.7756 O   0  0  0  0  0  0  0  0  0  0  0  0
   -4.7890   -0.8795   -0.5369 N   0  0  0  0  0  0  0  0  0  0  0  0
   -6.1299   -1.4058   -0.7168 C   0  0  0  0  0  0  0  0  0  0  0  0
   -6.1933   -2.7972   -1.3695 C   0  0  0  0  0  0  0  0  0  0  0  0
   -5.4816   -3.8831   -0.5695 C   0  0  0  0  0  0  0  0  0  0  0  0
   -6.5871   -4.4543    0.2830 C   0  0  0  0  0  0  0  0  0  0  0  0
   -7.7694   -4.3750   -0.6538 C   0  0  0  0  0  0  0  0  0  0  0  0
   -7.5815   -3.1951   -1.4430 O   0  0  0  0  0  0  0  0  0  0  0  0
    0.4332    0.5621   -1.8480 C   0  0  0  0  0  0  0  0  0  0  0  0
    0.4058   -0.6594   -2.0218 O   0  0  0  0  0  0  0  0  0  0  0  0
    1.6103    1.2120   -1.4944 N   0  0  0  0  0  0  0  0  0  0  0  0
    2.7977    0.3671   -1.3608 C   0  0  0  0  0  0  0  0  0  0  0  0
    2.9789   -0.1604    0.0724 C   0  0  0  0  0  0  0  0  0  0  0  0
    2.5539    0.4566    1.0463 O   0  0  0  0  0  0  0  0  0  0  0  0
    3.7217   -1.3327    0.1104 N   0  0  0  0  0  0  0  0  0  0  0  0
    4.1428   -2.0475    1.2522 C   0  0  0  0  0  0  0  0  0  0  0  0
    4.8594   -3.2319    1.0350 C   0  0  0  0  0  0  0  0  0  0  0  0
    5.3246   -3.9964    2.1102 C   0  0  0  0  0  0  0  0  0  0  0  0
    5.0740   -3.5934    3.4241 C   0  0  0  0  0  0  0  0  0  0  0  0
    5.5878   -4.3887    4.5868 C   0  0  0  0  0  0  0  0  0  0  0  0
    4.3666   -2.4067    3.6416 C   0  0  0  0  0  0  0  0  0  0  0  0
    3.9025   -1.6416    2.5645 C   0  0  0  0  0  0  0  0  0  0  0  0
    1.6410    2.5920   -1.1487 C   0  0  0  0  0  0  0  0  0  0  0  0
    2.8049    3.2423   -0.7121 C   0  0  0  0  0  0  0  0  0  0  0  0
    2.7881    4.6023   -0.3640 C   0  0  0  0  0  0  0  0  0  0  0  0
    3.9178    5.2672    0.0493 O   0  0  0  0  0  0  0  0  0  0  0  0
    4.7351    4.5386    0.9626 C   0  0  0  0  0  0  0  0  0  0  0  0
    0.1914    7.4831   -1.3454 H   0  0  0  0  0  0  0  0  0  0  0  0
    0.7782    8.4984   -0.0226 H   0  0  0  0  0  0  0  0  0  0  0  0
   -0.2751    7.1322    0.3644 H   0  0  0  0  0  0  0  0  0  0  0  0
   -0.4930    5.2469   -0.9920 H   0  0  0  0  0  0  0  0  0  0  0  0
   -2.5597    1.3942   -2.9596 H   0  0  0  0  0  0  0  0  0  0  0  0
   -1.7109   -0.1399   -3.0797 H   0  0  0  0  0  0  0  0  0  0  0  0
   -2.1236   -0.5827   -0.6448 H   0  0  0  0  0  0  0  0  0  0  0  0
   -2.9364    0.9849   -0.4928 H   0  0  0  0  0  0  0  0  0  0  0  0
   -4.5159   -0.5879    0.3927 H   0  0  0  0  0  0  0  0  0  0  0  0
   -6.6064   -1.4260    0.2711 H   0  0  0  0  0  0  0  0  0  0  0  0
   -6.7025   -0.6908   -1.3213 H   0  0  0  0  0  0  0  0  0  0  0  0
   -5.7972   -2.7548   -2.3893 H   0  0  0  0  0  0  0  0  0  0  0  0
   -5.1206   -4.6597   -1.2559 H   0  0  0  0  0  0  0  0  0  0  0  0
   -4.6241   -3.5320    0.0111 H   0  0  0  0  0  0  0  0  0  0  0  0
   -6.7542   -3.8141    1.1577 H   0  0  0  0  0  0  0  0  0  0  0  0
   -6.3893   -5.4714    0.6330 H   0  0  0  0  0  0  0  0  0  0  0  0
   -7.7971   -5.2346   -1.3323 H   0  0  0  0  0  0  0  0  0  0  0  0
   -8.7240   -4.3175   -0.1241 H   0  0  0  0  0  0  0  0  0  0  0  0
    2.7158   -0.4859   -2.0455 H   0  0  0  0  0  0  0  0  0  0  0  0
    3.6986    0.9051   -1.6701 H   0  0  0  0  0  0  0  0  0  0  0  0
    3.9540   -1.7596   -0.7781 H   0  0  0  0  0  0  0  0  0  0  0  0
    5.0700   -3.5817    0.0278 H   0  0  0  0  0  0  0  0  0  0  0  0
    5.8842   -4.9087    1.9116 H   0  0  0  0  0  0  0  0  0  0  0  0
    5.9003   -5.3919    4.2767 H   0  0  0  0  0  0  0  0  0  0  0  0
    6.4483   -3.8822    5.0358 H   0  0  0  0  0  0  0  0  0  0  0  0
    4.8057   -4.5076    5.3446 H   0  0  0  0  0  0  0  0  0  0  0  0
    4.1696   -2.0632    4.6552 H   0  0  0  0  0  0  0  0  0  0  0  0
    3.3551   -0.7323    2.7934 H   0  0  0  0  0  0  0  0  0  0  0  0
    3.7436    2.7099   -0.6314 H   0  0  0  0  0  0  0  0  0  0  0  0
    4.1389    3.9946    1.7050 H   0  0  0  0  0  0  0  0  0  0  0  0
    5.3980    3.8564    0.4198 H   0  0  0  0  0  0  0  0  0  0  0  0
    5.3610    5.2585    1.4981 H   0  0  0  0  0  0  0  0  0  0  0  0
  1  2  1  0
  2  3  1  0
  3  4  2  0
  4  5  1  0
  5  6  1  0
  6  7  2  0
  6  8  1  0
  8  9  1  0
  9 10  1  0
 10 11  1  0
 11 12  2  0
 11 13  1  0
 13 14  1  0
 14 15  1  0
 15 16  1  0
 16 17  1  0
 17 18  1  0
 18 19  1  0
  8 20  1  0
 20 21  2  0
 20 22  1  0
 22 23  1  0
 23 24  1  0
 24 25  2  0
 24 26  1  0
 26 27  1  0
 27 28  2  0
 28 29  1  0
 29 30  2  0
 30 31  1  0
 30 32  1  0
 32 33  2  0
 22 34  1  0
 34 35  1  0
 35 36  2  0
 36 37  1  0
 37 38  1  0
 36  3  1  0
 34  5  2  0
 19 15  1  0
 33 27  1  0
  1 39  1  0
  1 40  1  0
  1 41  1  0
  4 42  1  0
  9 43  1  0
  9 44  1  0
 10 45  1  0
 10 46  1  0
 13 47  1  0
 14 48  1  0
 14 49  1  0
 15 50  1  0
 16 51  1  0
 16 52  1  0
 17 53  1  0
 17 54  1  0
 18 55  1  0
 18 56  1  0
 23 57  1  0
 23 58  1  0
 26 59  1  0
 28 60  1  0
 29 61  1  0
 31 62  1  0
 31 63  1  0
 31 64  1  0
 32 65  1  0
 33 66  1  0
 35 67  1  0
 38 68  1  0
 38 69  1  0
 38 70  1  0
M  END
$$$$
