
     RDKit          3D

 59 61  0  0  0  0  0  0  0  0999 V2000
   10.2565   -1.1647   -0.4016 C   0  0  0  0  0  0  0  0  0  0  0  0
    9.6573   -0.2602    0.6644 C   0  0  0  0  0  0  0  0  0  0  0  0
    8.2319    0.1176    0.3431 C   0  0  0  0  0  0  0  0  0  0  0  0
    7.9593    1.2741   -0.3931 C   0  0  0  0  0  0  0  0  0  0  0  0
    6.6431    1.6294   -0.7105 C   0  0  0  0  0  0  0  0  0  0  0  0
    5.5750    0.8129   -0.2901 C   0  0  0  0  0  0  0  0  0  0  0  0
    4.2336    1.0428   -0.5324 N   0  0  0  0  0  0  0  0  0  0  0  0
    3.4798    0.0972   -0.0112 C   0  0  0  0  0  0  0  0  0  0  0  0
    2.1163    0.1025   -0.1120 N   0  0  0  0  0  0  0  0  0  0  0  0
    1.2748   -0.9782    0.3855 C   0  0  0  0  0  0  0  0  0  0  0  0
    0.0127   -1.0899   -0.4703 C   0  0  0  0  0  0  0  0  0  0  0  0
   -0.7990    0.2160   -0.4937 C   0  0  0  0  0  0  0  0  0  0  0  0
   -2.0497    0.0924    0.3727 C   0  0  0  0  0  0  0  0  0  0  0  0
   -2.2211    0.7226    1.4095 O   0  0  0  0  0  0  0  0  0  0  0  0
   -2.9754   -0.8013   -0.1237 N   0  0  0  0  0  0  0  0  0  0  0  0
   -4.2503   -1.0357    0.5365 C   0  0  0  0  0  0  0  0  0  0  0  0
   -5.2629    0.0983    0.2796 C   0  0  0  0  0  0  0  0  0  0  0  0
   -6.6023   -0.1799    0.8387 N   0  0  0  0  0  0  0  0  0  0  0  0
   -7.3263    1.0694    1.1320 C   0  0  0  0  0  0  0  0  0  0  0  0
   -7.7058    1.9288   -0.0708 C   0  0  0  0  0  0  0  0  0  0  0  0
   -7.3557   -1.1262    0.0007 C   0  0  0  0  0  0  0  0  0  0  0  0
   -8.6816   -1.5670    0.6143 C   0  0  0  0  0  0  0  0  0  0  0  0
    0.0458    1.4286   -0.0830 C   0  0  0  0  0  0  0  0  0  0  0  0
    1.4724    1.3184   -0.6089 C   0  0  0  0  0  0  0  0  0  0  0  0
    4.3846   -1.1327    0.8081 S   0  0  0  0  0  0  0  0  0  0  0  0
    5.8590   -0.3389    0.4358 C   0  0  0  0  0  0  0  0  0  0  0  0
    7.1756   -0.7088    0.7620 C   0  0  0  0  0  0  0  0  0  0  0  0
   11.2898   -1.4184   -0.1449 H   0  0  0  0  0  0  0  0  0  0  0  0
   10.2603   -0.6756   -1.3816 H   0  0  0  0  0  0  0  0  0  0  0  0
    9.6914   -2.0982   -0.4944 H   0  0  0  0  0  0  0  0  0  0  0  0
   10.2662    0.6465    0.7659 H   0  0  0  0  0  0  0  0  0  0  0  0
    9.6944   -0.7606    1.6399 H   0  0  0  0  0  0  0  0  0  0  0  0
    8.7714    1.9154   -0.7298 H   0  0  0  0  0  0  0  0  0  0  0  0
    6.4341    2.5298   -1.2796 H   0  0  0  0  0  0  0  0  0  0  0  0
    1.7824   -1.9477    0.3327 H   0  0  0  0  0  0  0  0  0  0  0  0
    1.0141   -0.7988    1.4355 H   0  0  0  0  0  0  0  0  0  0  0  0
    0.3115   -1.3296   -1.4999 H   0  0  0  0  0  0  0  0  0  0  0  0
   -0.5838   -1.9389   -0.1176 H   0  0  0  0  0  0  0  0  0  0  0  0
   -1.1496    0.3807   -1.5223 H   0  0  0  0  0  0  0  0  0  0  0  0
   -2.8326   -1.2043   -1.0403 H   0  0  0  0  0  0  0  0  0  0  0  0
   -4.0725   -1.1423    1.6129 H   0  0  0  0  0  0  0  0  0  0  0  0
   -4.6132   -1.9945    0.1560 H   0  0  0  0  0  0  0  0  0  0  0  0
   -5.3263    0.3074   -0.7965 H   0  0  0  0  0  0  0  0  0  0  0  0
   -4.8499    1.0056    0.7397 H   0  0  0  0  0  0  0  0  0  0  0  0
   -8.2313    0.8436    1.7076 H   0  0  0  0  0  0  0  0  0  0  0  0
   -6.7184    1.6764    1.8156 H   0  0  0  0  0  0  0  0  0  0  0  0
   -8.2078    2.8407    0.2704 H   0  0  0  0  0  0  0  0  0  0  0  0
   -8.3957    1.4081   -0.7414 H   0  0  0  0  0  0  0  0  0  0  0  0
   -6.8258    2.2334   -0.6447 H   0  0  0  0  0  0  0  0  0  0  0  0
   -6.7649   -2.0381   -0.1390 H   0  0  0  0  0  0  0  0  0  0  0  0
   -7.5347   -0.7190   -1.0017 H   0  0  0  0  0  0  0  0  0  0  0  0
   -8.5407   -1.9373    1.6353 H   0  0  0  0  0  0  0  0  0  0  0  0
   -9.1143   -2.3796    0.0210 H   0  0  0  0  0  0  0  0  0  0  0  0
   -9.4131   -0.7536    0.6346 H   0  0  0  0  0  0  0  0  0  0  0  0
   -0.4221    2.3465   -0.4594 H   0  0  0  0  0  0  0  0  0  0  0  0
    0.0812    1.5297    1.0097 H   0  0  0  0  0  0  0  0  0  0  0  0
    1.4697    1.3060   -1.7056 H   0  0  0  0  0  0  0  0  0  0  0  0
    2.0167    2.2162   -0.2896 H   0  0  0  0  0  0  0  0  0  0  0  0
    7.3660   -1.6169    1.3271 H   0  0  0  0  0  0  0  0  0  0  0  0
  1  2  1  0
  2  3  1  0
  3  4  2  0
  4  5  1  0
  5  6  2  0
  6  7  1  0
  7  8  2  0
  8  9  1  0
  9 10  1  0
 10 11  1  0
 11 12  1  0
 12 13  1  0
 13 14  2  0
 13 15  1  0
 15 16  1  0
 16 17  1  0
 17 18  1  0
 18 19  1  0
 19 20  1  0
 18 21  1  0
 21 22  1  0
 12 23  1  0
 23 24  1  0
  8 25  1  0
 25 26  1  0
 26 27  2  0
 27  3  1  0
 26  6  1  0
 24  9  1  0
  1 28  1  0
  1 29  1  0
  1 30  1  0
  2 31  1  0
  2 32  1  0
  4 33  1  0
  5 34  1  0
 10 35  1  0
 10 36  1  0
 11 37  1  0
 11 38  1  0
 12 39  1  0
 15 40  1  0
 16 41  1  0
 16 42  1  0
 17 43  1  0
 17 44  1  0
 19 45  1  0
 19 46  1  0
 20 47  1  0
 20 48  1  0
 20 49  1  0
 21 50  1  0
 21 51  1  0
 22 52  1  0
 22 53  1  0
 22 54  1  0
 23 55  1  0
 23 56  1  0
 24 57  1  0
 24 58  1  0
 27 59  1  0
M  END
$$$$
