
     RDKit          3D

 41 44  0  0  0  0  0  0  0  0999 V2000
   -8.2869    0.0780    0.4916 C   0  0  0  0  0  0  0  0  0  0  0  0
   -7.1155    0.9756    0.8391 C   0  0  0  0  0  0  0  0  0  0  0  0
   -5.8714    0.4424    0.3233 N   0  0  0  0  0  0  0  0  0  0  0  0
   -4.7472    1.2443    0.2634 C   0  0  0  0  0  0  0  0  0  0  0  0
   -4.7503    2.4390    0.5347 O   0  0  0  0  0  0  0  0  0  0  0  0
   -3.4787    0.5656   -0.1197 C   0  0  0  0  0  0  0  0  0  0  0  0
   -2.2707    1.0837    0.3515 C   0  0  0  0  0  0  0  0  0  0  0  0
   -1.0555    0.4735    0.0125 C   0  0  0  0  0  0  0  0  0  0  0  0
   -1.0170   -0.6536   -0.8157 C   0  0  0  0  0  0  0  0  0  0  0  0
    0.1636   -1.3170   -1.1855 N   0  0  0  0  0  0  0  0  0  0  0  0
    1.4538   -1.0636   -0.8201 C   0  0  0  0  0  0  0  0  0  0  0  0
    1.9419   -0.1800   -0.0124 N   0  0  0  0  0  0  0  0  0  0  0  0
    3.3091   -0.2975    0.0502 N   0  0  0  0  0  0  0  0  0  0  0  0
    4.0647    0.5413    0.8520 C   0  0  0  0  0  0  0  0  0  0  0  0
    3.6289    1.4404    1.5656 O   0  0  0  0  0  0  0  0  0  0  0  0
    5.5229    0.2772    0.7999 C   0  0  0  0  0  0  0  0  0  0  0  0
    6.4131    1.0480    1.5570 C   0  0  0  0  0  0  0  0  0  0  0  0
    7.7804    0.7824    1.4929 C   0  0  0  0  0  0  0  0  0  0  0  0
    8.2521   -0.2465    0.6775 C   0  0  0  0  0  0  0  0  0  0  0  0
    7.3580   -1.0126   -0.0760 C   0  0  0  0  0  0  0  0  0  0  0  0
    5.9853   -0.7603   -0.0238 C   0  0  0  0  0  0  0  0  0  0  0  0
    5.1255   -1.5592   -0.8011 N   0  0  0  0  0  0  0  0  0  0  0  0
    3.8694   -1.2828   -0.7168 C   0  0  0  0  0  0  0  0  0  0  0  0
    2.6331   -2.1308   -1.5804 S   0  0  0  0  0  0  0  0  0  0  0  0
   -2.2416   -1.1549   -1.2923 C   0  0  0  0  0  0  0  0  0  0  0  0
   -3.4610   -0.5540   -0.9546 C   0  0  0  0  0  0  0  0  0  0  0  0
   -8.3917   -0.0253   -0.5936 H   0  0  0  0  0  0  0  0  0  0  0  0
   -8.1506   -0.9248    0.9101 H   0  0  0  0  0  0  0  0  0  0  0  0
   -9.2180    0.4924    0.8897 H   0  0  0  0  0  0  0  0  0  0  0  0
   -7.2732    1.9796    0.4304 H   0  0  0  0  0  0  0  0  0  0  0  0
   -7.0126    1.0665    1.9257 H   0  0  0  0  0  0  0  0  0  0  0  0
   -5.7246   -0.5546    0.4053 H   0  0  0  0  0  0  0  0  0  0  0  0
   -2.2654    1.9662    0.9895 H   0  0  0  0  0  0  0  0  0  0  0  0
   -0.1474    0.9176    0.4121 H   0  0  0  0  0  0  0  0  0  0  0  0
    0.0457   -2.0778   -1.8414 H   0  0  0  0  0  0  0  0  0  0  0  0
    6.0442    1.8504    2.1925 H   0  0  0  0  0  0  0  0  0  0  0  0
    8.4778    1.3774    2.0782 H   0  0  0  0  0  0  0  0  0  0  0  0
    9.3185   -0.4544    0.6266 H   0  0  0  0  0  0  0  0  0  0  0  0
    7.7327   -1.8130   -0.7096 H   0  0  0  0  0  0  0  0  0  0  0  0
   -2.2617   -2.0245   -1.9460 H   0  0  0  0  0  0  0  0  0  0  0  0
   -4.3798   -0.9546   -1.3735 H   0  0  0  0  0  0  0  0  0  0  0  0
  1  2  1  0
  2  3  1  0
  3  4  1  0
  4  5  2  0
  4  6  1  0
  6  7  2  0
  7  8  1  0
  8  9  2  0
  9 10  1  0
 10 11  1  0
 11 12  2  0
 12 13  1  0
 13 14  1  0
 14 15  2  0
 14 16  1  0
 16 17  2  0
 17 18  1  0
 18 19  2  0
 19 20  1  0
 20 21  2  0
 21 22  1  0
 22 23  2  0
 23 24  1  0
  9 25  1  0
 25 26  2  0
 26  6  1  0
 24 11  1  0
 23 13  1  0
 21 16  1  0
  1 27  1  0
  1 28  1  0
  1 29  1  0
  2 30  1  0
  2 31  1  0
  3 32  1  0
  7 33  1  0
  8 34  1  0
 10 35  1  0
 17 36  1  0
 18 37  1  0
 19 38  1  0
 20 39  1  0
 25 40  1  0
 26 41  1  0
M  END
$$$$
