
     RDKit          3D

 55 57  0  0  0  0  0  0  0  0999 V2000
   -3.9404    2.6695    0.8664 C   0  0  0  0  0  0  0  0  0  0  0  0
   -5.0475    2.2340   -0.0759 C   0  0  0  0  0  0  0  0  0  0  0  0
   -5.8431    1.0868    0.4994 C   0  0  0  0  0  0  0  0  0  0  0  0
   -6.8960    1.3489    1.0956 O   0  0  0  0  0  0  0  0  0  0  0  0
   -5.4096   -0.2184    0.3877 N   0  0  0  0  0  0  0  0  0  0  0  0
   -6.2527   -1.2744    0.9735 C   0  0  0  0  0  0  0  0  0  0  0  0
   -5.6141   -2.6224    0.6498 C   0  0  0  0  0  0  0  0  0  0  0  0
   -4.3598   -2.2057   -0.0481 C   0  0  0  0  0  0  0  0  0  0  0  0
   -3.3742   -3.0577   -0.5316 C   0  0  0  0  0  0  0  0  0  0  0  0
   -2.2558   -2.5186   -1.1807 C   0  0  0  0  0  0  0  0  0  0  0  0
   -0.9774   -3.7970   -1.7547 Br  0  0  0  0  0  0  0  0  0  0  0  0
   -2.1537   -1.1268   -1.3248 C   0  0  0  0  0  0  0  0  0  0  0  0
   -0.8111   -0.3018   -2.1574 S   0  0  0  0  0  6  0  0  0  0  0  0
   -0.1441   -1.1999   -3.0678 O   0  0  0  0  0  0  0  0  0  0  0  0
   -1.3167    0.9733   -2.6228 O   0  0  0  0  0  0  0  0  0  0  0  0
    0.2338    0.0696   -0.9058 N   0  0  0  0  0  0  0  0  0  0  0  0
    0.9122   -0.9755   -0.1474 C   0  0  0  0  0  0  0  0  0  0  0  0
    2.1390   -0.4034    0.5620 C   0  0  0  0  0  0  0  0  0  0  0  0
    3.2491   -0.0179   -0.4262 C   0  0  0  0  0  0  0  0  0  0  0  0
    4.4061    0.5918    0.2493 N   0  0  0  0  0  0  0  0  0  0  0  0
    5.2302   -0.3750    0.9775 C   0  0  0  0  0  0  0  0  0  0  0  0
    6.2395    0.3593    1.8701 C   0  0  0  0  0  0  0  0  0  0  0  0
    6.7976    1.6330    1.2324 C   0  0  0  0  0  0  0  0  0  0  0  0
    6.6740    1.5790   -0.2822 C   0  0  0  0  0  0  0  0  0  0  0  0
    5.2199    1.3528   -0.7201 C   0  0  0  0  0  0  0  0  0  0  0  0
   -3.1775   -0.2800   -0.8317 C   0  0  0  0  0  0  0  0  0  0  0  0
   -4.2773   -0.8212   -0.1922 C   0  0  0  0  0  0  0  0  0  0  0  0
   -4.3625    3.0485    1.8036 H   0  0  0  0  0  0  0  0  0  0  0  0
   -3.2676    1.8480    1.1271 H   0  0  0  0  0  0  0  0  0  0  0  0
   -3.3487    3.4709    0.4136 H   0  0  0  0  0  0  0  0  0  0  0  0
   -5.7381    3.0747   -0.2215 H   0  0  0  0  0  0  0  0  0  0  0  0
   -4.6896    1.9924   -1.0779 H   0  0  0  0  0  0  0  0  0  0  0  0
   -7.2679   -1.2024    0.5653 H   0  0  0  0  0  0  0  0  0  0  0  0
   -6.3142   -1.1124    2.0567 H   0  0  0  0  0  0  0  0  0  0  0  0
   -5.4013   -3.1916    1.5597 H   0  0  0  0  0  0  0  0  0  0  0  0
   -6.2533   -3.2131   -0.0140 H   0  0  0  0  0  0  0  0  0  0  0  0
   -3.4832   -4.1323   -0.4023 H   0  0  0  0  0  0  0  0  0  0  0  0
    0.1214    1.0000   -0.5060 H   0  0  0  0  0  0  0  0  0  0  0  0
    1.2189   -1.7980   -0.7993 H   0  0  0  0  0  0  0  0  0  0  0  0
    0.2206   -1.3654    0.6069 H   0  0  0  0  0  0  0  0  0  0  0  0
    1.8512    0.4722    1.1576 H   0  0  0  0  0  0  0  0  0  0  0  0
    2.5025   -1.1637    1.2617 H   0  0  0  0  0  0  0  0  0  0  0  0
    2.8281    0.7105   -1.1312 H   0  0  0  0  0  0  0  0  0  0  0  0
    3.5579   -0.8899   -1.0169 H   0  0  0  0  0  0  0  0  0  0  0  0
    4.6281   -1.0176    1.6280 H   0  0  0  0  0  0  0  0  0  0  0  0
    5.7540   -1.0414    0.2794 H   0  0  0  0  0  0  0  0  0  0  0  0
    5.7736    0.6215    2.8281 H   0  0  0  0  0  0  0  0  0  0  0  0
    7.0631   -0.3266    2.1025 H   0  0  0  0  0  0  0  0  0  0  0  0
    7.8420    1.7765    1.5307 H   0  0  0  0  0  0  0  0  0  0  0  0
    6.2415    2.5012    1.6084 H   0  0  0  0  0  0  0  0  0  0  0  0
    7.0554    2.5049   -0.7270 H   0  0  0  0  0  0  0  0  0  0  0  0
    7.3009    0.7621   -0.6621 H   0  0  0  0  0  0  0  0  0  0  0  0
    5.2427    0.8552   -1.6988 H   0  0  0  0  0  0  0  0  0  0  0  0
    4.7389    2.3272   -0.8696 H   0  0  0  0  0  0  0  0  0  0  0  0
   -3.0653    0.7864   -0.9663 H   0  0  0  0  0  0  0  0  0  0  0  0
  1  2  1  0
  2  3  1  0
  3  4  2  0
  3  5  1  0
  5  6  1  0
  6  7  1  0
  7  8  1  0
  8  9  2  0
  9 10  1  0
 10 11  1  0
 10 12  2  0
 12 13  1  0
 13 14  2  0
 13 15  2  0
 13 16  1  0
 16 17  1  0
 17 18  1  0
 18 19  1  0
 19 20  1  0
 20 21  1  0
 21 22  1  0
 22 23  1  0
 23 24  1  0
 24 25  1  0
 12 26  1  0
 26 27  2  0
 27  5  1  0
 27  8  1  0
 25 20  1  0
  1 28  1  0
  1 29  1  0
  1 30  1  0
  2 31  1  0
  2 32  1  0
  6 33  1  0
  6 34  1  0
  7 35  1  0
  7 36  1  0
  9 37  1  0
 16 38  1  0
 17 39  1  0
 17 40  1  0
 18 41  1  0
 18 42  1  0
 19 43  1  0
 19 44  1  0
 21 45  1  0
 21 46  1  0
 22 47  1  0
 22 48  1  0
 23 49  1  0
 23 50  1  0
 24 51  1  0
 24 52  1  0
 25 53  1  0
 25 54  1  0
 26 55  1  0
M  END
$$$$
