
     RDKit          3D

 35 37  0  0  0  0  0  0  0  0999 V2000
    3.5379   -0.1269   -2.1096 C   0  0  0  0  0  0  0  0  0  0  0  0
    3.8854    0.2305   -0.6937 C   0  0  0  0  0  0  0  0  0  0  0  0
    5.2129    0.5617   -0.3828 C   0  0  0  0  0  0  0  0  0  0  0  0
    5.5596    0.8965    0.9189 C   0  0  0  0  0  0  0  0  0  0  0  0
    4.5629    0.8874    1.8721 C   0  0  0  0  0  0  0  0  0  0  0  0
    3.2795    0.5725    1.6070 N   0  0  0  0  0  0  0  0  0  0  0  0
    2.9400    0.2530    0.3441 C   0  0  0  0  0  0  0  0  0  0  0  0
    1.6066   -0.0860    0.0558 N   0  0  0  0  0  0  0  0  0  0  0  0
    0.5514   -0.0335    0.9451 C   0  0  0  0  0  0  0  0  0  0  0  0
    0.5523    0.3864    2.0950 O   0  0  0  0  0  0  0  0  0  0  0  0
   -0.7459   -0.5062    0.3794 C   0  0  0  0  0  0  0  0  0  0  0  0
   -0.8070   -1.6121   -0.4753 C   0  0  0  0  0  0  0  0  0  0  0  0
   -2.0333   -2.0337   -1.0054 C   0  0  0  0  0  0  0  0  0  0  0  0
   -3.2127   -1.3422   -0.6644 C   0  0  0  0  0  0  0  0  0  0  0  0
   -4.5812   -1.5025   -1.0135 C   0  0  0  0  0  0  0  0  0  0  0  0
   -5.2993   -0.5281   -0.3583 C   0  0  0  0  0  0  0  0  0  0  0  0
   -4.4190    0.2167    0.3810 N   0  0  0  0  0  0  0  0  0  0  0  0
   -4.7863    1.3323    1.2250 C   0  0  0  0  0  0  0  0  0  0  0  0
   -3.1335   -0.2536    0.2083 C   0  0  0  0  0  0  0  0  0  0  0  0
   -1.9123    0.1805    0.7487 C   0  0  0  0  0  0  0  0  0  0  0  0
    4.4148   -0.0815   -2.7645 H   0  0  0  0  0  0  0  0  0  0  0  0
    2.7958    0.5724   -2.5081 H   0  0  0  0  0  0  0  0  0  0  0  0
    3.1451   -1.1476   -2.1596 H   0  0  0  0  0  0  0  0  0  0  0  0
    5.9809    0.5609   -1.1524 H   0  0  0  0  0  0  0  0  0  0  0  0
    6.5779    1.1569    1.1827 H   0  0  0  0  0  0  0  0  0  0  0  0
    4.7690    1.1394    2.9081 H   0  0  0  0  0  0  0  0  0  0  0  0
    1.3950   -0.3240   -0.8986 H   0  0  0  0  0  0  0  0  0  0  0  0
    0.0868   -2.1811   -0.7169 H   0  0  0  0  0  0  0  0  0  0  0  0
   -2.0775   -2.8964   -1.6642 H   0  0  0  0  0  0  0  0  0  0  0  0
   -4.9965   -2.2544   -1.6715 H   0  0  0  0  0  0  0  0  0  0  0  0
   -6.3601   -0.3138   -0.3569 H   0  0  0  0  0  0  0  0  0  0  0  0
   -4.2708    2.2248    0.8615 H   0  0  0  0  0  0  0  0  0  0  0  0
   -4.4882    1.1024    2.2510 H   0  0  0  0  0  0  0  0  0  0  0  0
   -5.8676    1.4854    1.1795 H   0  0  0  0  0  0  0  0  0  0  0  0
   -1.8625    1.0236    1.4324 H   0  0  0  0  0  0  0  0  0  0  0  0
  1  2  1  0
  2  3  2  0
  3  4  1  0
  4  5  2  0
  5  6  1  0
  6  7  2  0
  7  8  1  0
  8  9  1  0
  9 10  2  0
  9 11  1  0
 11 12  2  0
 12 13  1  0
 13 14  2  0
 14 15  1  0
 15 16  2  0
 16 17  1  0
 17 18  1  0
 17 19  1  0
 19 20  2  0
  7  2  1  0
 20 11  1  0
 19 14  1  0
  1 21  1  0
  1 22  1  0
  1 23  1  0
  3 24  1  0
  4 25  1  0
  5 26  1  0
  8 27  1  0
 12 28  1  0
 13 29  1  0
 15 30  1  0
 16 31  1  0
 18 32  1  0
 18 33  1  0
 18 34  1  0
 20 35  1  0
M  END
$$$$
