
     RDKit          3D

 50 53  0  0  0  0  0  0  0  0999 V2000
   -2.1854    4.8052    1.3023 C   0  0  0  0  0  0  0  0  0  0  0  0
   -3.4910    3.5935    1.6368 S   0  0  0  0  0  0  0  0  0  0  0  0
   -2.5852    2.0694    1.1944 C   0  0  0  0  0  0  0  0  0  0  0  0
   -2.5959    1.8468   -0.3173 C   0  0  0  0  0  0  0  0  0  0  0  0
   -1.6463    0.7399   -0.8087 C   0  0  1  0  0  0  0  0  0  0  0  0
   -0.1526    1.0819   -0.5516 C   0  0  0  0  0  0  0  0  0  0  0  0
    0.2268    2.2505   -0.5160 O   0  0  0  0  0  0  0  0  0  0  0  0
    0.6624   -0.0361   -0.5362 N   0  0  0  0  0  0  0  0  0  0  0  0
    2.0656   -0.0887   -0.4358 C   0  0  0  0  0  0  0  0  0  0  0  0
    2.6446   -1.3586   -0.2980 C   0  0  0  0  0  0  0  0  0  0  0  0
    4.0305   -1.5052   -0.1924 C   0  0  0  0  0  0  0  0  0  0  0  0
    4.8480   -0.3809   -0.2238 C   0  0  0  0  0  0  0  0  0  0  0  0
    4.2824    0.8859   -0.3915 C   0  0  0  0  0  0  0  0  0  0  0  0
    2.8958    1.0334   -0.4825 C   0  0  0  0  0  0  0  0  0  0  0  0
    5.0301    2.0349   -0.4683 O   0  0  0  0  0  0  0  0  0  0  0  0
    6.4128    1.7464   -0.7004 C   0  0  0  0  0  0  0  0  0  0  0  0
    6.8864    0.6245    0.2083 C   0  0  0  0  0  0  0  0  0  0  0  0
    6.1961   -0.5939   -0.0928 O   0  0  0  0  0  0  0  0  0  0  0  0
   -2.0613   -0.6237   -0.4525 N   0  0  0  0  0  0  0  0  0  0  0  0
   -2.9942   -1.3610   -1.2972 C   0  0  0  0  0  0  0  0  0  0  0  0
   -3.3864   -2.5107   -0.4335 C   0  0  0  0  0  0  0  0  0  0  0  0
   -4.2030   -3.5913   -0.7141 C   0  0  0  0  0  0  0  0  0  0  0  0
   -4.4252   -4.5301    0.3005 C   0  0  0  0  0  0  0  0  0  0  0  0
   -3.8387   -4.3779    1.5713 C   0  0  0  0  0  0  0  0  0  0  0  0
   -3.0183   -3.2837    1.8481 C   0  0  0  0  0  0  0  0  0  0  0  0
   -2.8126   -2.3744    0.8287 C   0  0  0  0  0  0  0  0  0  0  0  0
   -2.0087   -1.1493    0.8312 C   0  0  0  0  0  0  0  0  0  0  0  0
   -1.3955   -0.7161    1.7853 O   0  0  0  0  0  0  0  0  0  0  0  0
   -2.5491    5.8017    1.5669 H   0  0  0  0  0  0  0  0  0  0  0  0
   -1.3006    4.5892    1.9067 H   0  0  0  0  0  0  0  0  0  0  0  0
   -1.9176    4.8078    0.2432 H   0  0  0  0  0  0  0  0  0  0  0  0
   -3.1056    1.2481    1.6946 H   0  0  0  0  0  0  0  0  0  0  0  0
   -1.5730    2.1239    1.6047 H   0  0  0  0  0  0  0  0  0  0  0  0
   -3.6191    1.6119   -0.6383 H   0  0  0  0  0  0  0  0  0  0  0  0
   -2.3175    2.7748   -0.8322 H   0  0  0  0  0  0  0  0  0  0  0  0
   -1.7049    0.7573   -1.9080 H   0  0  0  0  0  0  0  0  0  0  0  0
    0.1700   -0.9186   -0.4644 H   0  0  0  0  0  0  0  0  0  0  0  0
    2.0250   -2.2509   -0.2583 H   0  0  0  0  0  0  0  0  0  0  0  0
    4.4679   -2.4921   -0.0722 H   0  0  0  0  0  0  0  0  0  0  0  0
    2.4974    2.0352   -0.6017 H   0  0  0  0  0  0  0  0  0  0  0  0
    6.5421    1.4879   -1.7587 H   0  0  0  0  0  0  0  0  0  0  0  0
    6.9805    2.6605   -0.5006 H   0  0  0  0  0  0  0  0  0  0  0  0
    7.9559    0.4443    0.0613 H   0  0  0  0  0  0  0  0  0  0  0  0
    6.7226    0.8667    1.2657 H   0  0  0  0  0  0  0  0  0  0  0  0
   -3.8580   -0.7301   -1.5266 H   0  0  0  0  0  0  0  0  0  0  0  0
   -2.4771   -1.6779   -2.2069 H   0  0  0  0  0  0  0  0  0  0  0  0
   -4.6660   -3.7145   -1.6884 H   0  0  0  0  0  0  0  0  0  0  0  0
   -5.0645   -5.3900    0.1082 H   0  0  0  0  0  0  0  0  0  0  0  0
   -4.0298   -5.1192    2.3445 H   0  0  0  0  0  0  0  0  0  0  0  0
   -2.5598   -3.1468    2.8219 H   0  0  0  0  0  0  0  0  0  0  0  0
  1  2  1  0
  2  3  1  0
  3  4  1  0
  4  5  1  0
  5  6  1  0
  6  7  2  0
  6  8  1  0
  8  9  1  0
  9 10  2  0
 10 11  1  0
 11 12  2  0
 12 13  1  0
 13 14  2  0
 13 15  1  0
 15 16  1  0
 16 17  1  0
 17 18  1  0
  5 19  1  0
 19 20  1  0
 20 21  1  0
 21 22  2  0
 22 23  1  0
 23 24  2  0
 24 25  1  0
 25 26  2  0
 26 27  1  0
 27 28  2  0
 14  9  1  0
 27 19  1  0
 18 12  1  0
 26 21  1  0
  1 29  1  0
  1 30  1  0
  1 31  1  0
  3 32  1  0
  3 33  1  0
  4 34  1  0
  4 35  1  0
  5 36  1  6
  8 37  1  0
 10 38  1  0
 11 39  1  0
 14 40  1  0
 16 41  1  0
 16 42  1  0
 17 43  1  0
 17 44  1  0
 20 45  1  0
 20 46  1  0
 22 47  1  0
 23 48  1  0
 24 49  1  0
 25 50  1  0
M  END
$$$$
