
     RDKit          3D

 35 36  0  0  0  0  0  0  0  0999 V2000
    4.5837   -1.2642    0.7476 C   0  0  0  0  0  0  0  0  0  0  0  0
    4.1651    0.1985    0.5733 C   0  0  0  0  0  0  0  0  0  0  0  0
    5.3815    1.1080    0.7620 C   0  0  0  0  0  0  0  0  0  0  0  0
    3.5274    0.4557   -0.8035 C   0  0  0  0  0  0  0  0  0  0  0  0
    2.2134   -0.2163   -0.9599 C   0  0  0  0  0  0  0  0  0  0  0  0
    0.9395    0.0526   -0.5236 C   0  0  0  0  0  0  0  0  0  0  0  0
    0.1455   -1.0169   -1.0297 C   0  0  0  0  0  0  0  0  0  0  0  0
   -1.3005   -1.2681   -0.8728 C   0  0  0  0  0  0  0  0  0  0  0  0
   -1.7863   -2.3740   -1.0866 O   0  0  0  0  0  0  0  0  0  0  0  0
   -2.0241   -0.1454   -0.4835 N   0  0  0  0  0  0  0  0  0  0  0  0
   -3.4070   -0.0644   -0.2046 C   0  0  0  0  0  0  0  0  0  0  0  0
   -4.2708   -1.1627   -0.2003 C   0  0  0  0  0  0  0  0  0  0  0  0
   -5.6289   -0.9985    0.0943 C   0  0  0  0  0  0  0  0  0  0  0  0
   -6.1345    0.2643    0.3888 C   0  0  0  0  0  0  0  0  0  0  0  0
   -5.2794    1.3569    0.3873 C   0  0  0  0  0  0  0  0  0  0  0  0
   -5.8142    2.5769    0.6809 O   0  0  0  0  0  0  0  0  0  0  0  0
   -3.9242    1.2051    0.0959 C   0  0  0  0  0  0  0  0  0  0  0  0
    0.9190   -1.8699   -1.7239 N   0  0  0  0  0  0  0  0  0  0  0  0
    2.2000   -1.3630   -1.6848 O   0  0  0  0  0  0  0  0  0  0  0  0
    3.7191   -1.9340    0.7045 H   0  0  0  0  0  0  0  0  0  0  0  0
    5.0659   -1.4158    1.7194 H   0  0  0  0  0  0  0  0  0  0  0  0
    5.2906   -1.5704   -0.0311 H   0  0  0  0  0  0  0  0  0  0  0  0
    3.4394    0.4411    1.3607 H   0  0  0  0  0  0  0  0  0  0  0  0
    6.1476    0.9099    0.0045 H   0  0  0  0  0  0  0  0  0  0  0  0
    5.8325    0.9556    1.7484 H   0  0  0  0  0  0  0  0  0  0  0  0
    5.0946    2.1622    0.6870 H   0  0  0  0  0  0  0  0  0  0  0  0
    3.3752    1.5340   -0.9407 H   0  0  0  0  0  0  0  0  0  0  0  0
    4.2094    0.1363   -1.6016 H   0  0  0  0  0  0  0  0  0  0  0  0
    0.6407    0.8875    0.0909 H   0  0  0  0  0  0  0  0  0  0  0  0
   -1.5227    0.7293   -0.4481 H   0  0  0  0  0  0  0  0  0  0  0  0
   -3.9251   -2.1686   -0.4185 H   0  0  0  0  0  0  0  0  0  0  0  0
   -6.2895   -1.8621    0.0929 H   0  0  0  0  0  0  0  0  0  0  0  0
   -7.1884    0.3940    0.6173 H   0  0  0  0  0  0  0  0  0  0  0  0
   -5.1196    3.2523    0.6250 H   0  0  0  0  0  0  0  0  0  0  0  0
   -3.2747    2.0740    0.1012 H   0  0  0  0  0  0  0  0  0  0  0  0
  1  2  1  0
  2  3  1  0
  2  4  1  0
  4  5  1  0
  5  6  2  0
  6  7  1  0
  7  8  1  0
  8  9  2  0
  8 10  1  0
 10 11  1  0
 11 12  2  0
 12 13  1  0
 13 14  2  0
 14 15  1  0
 15 16  1  0
 15 17  2  0
  7 18  2  0
 18 19  1  0
 19  5  1  0
 17 11  1  0
  1 20  1  0
  1 21  1  0
  1 22  1  0
  2 23  1  0
  3 24  1  0
  3 25  1  0
  3 26  1  0
  4 27  1  0
  4 28  1  0
  6 29  1  0
 10 30  1  0
 12 31  1  0
 13 32  1  0
 14 33  1  0
 16 34  1  0
 17 35  1  0
M  END
$$$$
