
     RDKit          3D

 54 56  0  0  0  0  0  0  0  0999 V2000
   -6.4625    2.6612   -0.4337 C   0  0  0  0  0  0  0  0  0  0  0  0
   -6.3675    1.8556    0.8582 C   0  0  0  0  0  0  0  0  0  0  0  0
   -6.5033    0.3671    0.6144 C   0  0  0  0  0  0  0  0  0  0  0  0
   -7.7645   -0.2102    0.8726 C   0  0  0  0  0  0  0  0  0  0  0  0
   -7.9957   -1.5643    0.6481 C   0  0  0  0  0  0  0  0  0  0  0  0
   -6.9679   -2.3640    0.1603 C   0  0  0  0  0  0  0  0  0  0  0  0
   -5.7135   -1.8084   -0.1023 C   0  0  0  0  0  0  0  0  0  0  0  0
   -5.4624   -0.4456    0.1100 C   0  0  0  0  0  0  0  0  0  0  0  0
   -4.2022    0.1404   -0.1668 N   0  0  0  0  0  0  0  0  0  0  0  0
   -3.1106   -0.4407   -0.8076 C   0  0  0  0  0  0  0  0  0  0  0  0
   -3.0485   -1.5911   -1.2405 O   0  0  0  0  0  0  0  0  0  0  0  0
   -1.9532    0.5172   -0.9913 C   0  0  0  0  0  0  0  0  0  0  0  0
   -0.7406    0.0229   -0.3800 N   0  0  0  0  0  0  0  0  0  0  0  0
   -0.2042    0.6869    0.6647 N   0  0  0  0  0  0  0  0  0  0  0  0
    0.9764    0.1387    0.9204 N   0  0  0  0  0  0  0  0  0  0  0  0
    1.1871   -0.8860    0.0201 C   0  0  0  0  0  0  0  0  0  0  0  0
    2.3991   -1.6935    0.0108 C   0  0  0  0  0  0  0  0  0  0  0  0
    2.5808   -2.6236   -0.7687 O   0  0  0  0  0  0  0  0  0  0  0  0
    3.3208   -1.3069    0.9597 N   0  0  0  0  0  0  0  0  0  0  0  0
    4.6580   -1.8382    0.9977 C   0  0  0  0  0  0  0  0  0  0  0  0
    5.6297   -0.8746    0.3653 C   0  0  0  0  0  0  0  0  0  0  0  0
    5.8496   -0.8930   -1.0182 C   0  0  0  0  0  0  0  0  0  0  0  0
    6.7259    0.0217   -1.6081 C   0  0  0  0  0  0  0  0  0  0  0  0
    7.3909    0.9736   -0.8334 C   0  0  0  0  0  0  0  0  0  0  0  0
    8.2157    1.8090   -1.5359 O   0  0  0  0  0  0  0  0  0  0  0  0
    8.8796    2.8274   -0.7912 C   0  0  0  0  0  0  0  0  0  0  0  0
    7.1711    1.0017    0.5442 C   0  0  0  0  0  0  0  0  0  0  0  0
    6.2935    0.0859    1.1388 C   0  0  0  0  0  0  0  0  0  0  0  0
    0.0850   -0.9845   -0.8117 C   0  0  0  0  0  0  0  0  0  0  0  0
   -0.2342   -1.8041   -1.8463 N   0  0  0  0  0  0  0  0  0  0  0  0
   -5.5921    2.4869   -1.0752 H   0  0  0  0  0  0  0  0  0  0  0  0
   -7.3555    2.3950   -1.0097 H   0  0  0  0  0  0  0  0  0  0  0  0
   -6.5058    3.7349   -0.2128 H   0  0  0  0  0  0  0  0  0  0  0  0
   -5.4259    2.0706    1.3808 H   0  0  0  0  0  0  0  0  0  0  0  0
   -7.1601    2.1921    1.5473 H   0  0  0  0  0  0  0  0  0  0  0  0
   -8.5831    0.4003    1.2443 H   0  0  0  0  0  0  0  0  0  0  0  0
   -8.9731   -1.9934    0.8496 H   0  0  0  0  0  0  0  0  0  0  0  0
   -7.1343   -3.4251   -0.0182 H   0  0  0  0  0  0  0  0  0  0  0  0
   -4.9454   -2.4833   -0.4650 H   0  0  0  0  0  0  0  0  0  0  0  0
   -4.1092    1.1116    0.0971 H   0  0  0  0  0  0  0  0  0  0  0  0
   -1.7695    0.6539   -2.0581 H   0  0  0  0  0  0  0  0  0  0  0  0
   -2.1712    1.4983   -0.5663 H   0  0  0  0  0  0  0  0  0  0  0  0
    3.1162   -0.4655    1.4784 H   0  0  0  0  0  0  0  0  0  0  0  0
    4.9155   -2.0045    2.0471 H   0  0  0  0  0  0  0  0  0  0  0  0
    4.7054   -2.8086    0.4952 H   0  0  0  0  0  0  0  0  0  0  0  0
    5.3335   -1.6170   -1.6454 H   0  0  0  0  0  0  0  0  0  0  0  0
    6.8863   -0.0034   -2.6831 H   0  0  0  0  0  0  0  0  0  0  0  0
    8.1622    3.4987   -0.3107 H   0  0  0  0  0  0  0  0  0  0  0  0
    9.4713    3.4244   -1.4883 H   0  0  0  0  0  0  0  0  0  0  0  0
    9.5691    2.3938   -0.0603 H   0  0  0  0  0  0  0  0  0  0  0  0
    7.6632    1.7240    1.1857 H   0  0  0  0  0  0  0  0  0  0  0  0
    6.1322    0.1297    2.2144 H   0  0  0  0  0  0  0  0  0  0  0  0
   -1.2193   -2.0672   -1.9658 H   0  0  0  0  0  0  0  0  0  0  0  0
    0.3570   -2.6269   -1.9712 H   0  0  0  0  0  0  0  0  0  0  0  0
  1  2  1  0
  2  3  1  0
  3  4  2  0
  4  5  1  0
  5  6  2  0
  6  7  1  0
  7  8  2  0
  8  9  1  0
  9 10  1  0
 10 11  2  0
 10 12  1  0
 12 13  1  0
 13 14  1  0
 14 15  2  0
 15 16  1  0
 16 17  1  0
 17 18  2  0
 17 19  1  0
 19 20  1  0
 20 21  1  0
 21 22  2  0
 22 23  1  0
 23 24  2  0
 24 25  1  0
 25 26  1  0
 24 27  1  0
 27 28  2  0
 16 29  2  0
 29 30  1  0
  8  3  1  0
 29 13  1  0
 28 21  1  0
  1 31  1  0
  1 32  1  0
  1 33  1  0
  2 34  1  0
  2 35  1  0
  4 36  1  0
  5 37  1  0
  6 38  1  0
  7 39  1  0
  9 40  1  0
 12 41  1  0
 12 42  1  0
 19 43  1  0
 20 44  1  0
 20 45  1  0
 22 46  1  0
 23 47  1  0
 26 48  1  0
 26 49  1  0
 26 50  1  0
 27 51  1  0
 28 52  1  0
 30 53  1  0
 30 54  1  0
M  END
$$$$
