
     RDKit          3D

 57 60  0  0  0  0  0  0  0  0999 V2000
    0.0372    2.0823   -3.0597 C   0  0  0  0  0  0  0  0  0  0  0  0
    0.6035    0.8425   -2.3900 C   0  0  0  0  0  0  0  0  0  0  0  0
   -0.1054    0.4794   -1.1816 N   0  0  0  0  0  0  0  0  0  0  0  0
    0.1705    0.9119    0.0974 C   0  0  0  0  0  0  0  0  0  0  0  0
    1.2284    1.8858    0.4685 C   0  0  0  0  0  0  0  0  0  0  0  0
    2.3862    1.1361    0.9011 N   0  0  0  0  0  0  0  0  0  0  0  0
    3.5746    1.1511    0.2128 C   0  0  0  0  0  0  0  0  0  0  0  0
    3.7652    1.8410   -0.7829 O   0  0  0  0  0  0  0  0  0  0  0  0
    4.6641    0.2850    0.7425 C   0  0  0  0  0  0  0  0  0  0  0  0
    5.9898    0.6520    0.4798 C   0  0  0  0  0  0  0  0  0  0  0  0
    7.0514   -0.1294    0.9510 C   0  0  0  0  0  0  0  0  0  0  0  0
    6.7953   -1.2896    1.6814 C   0  0  0  0  0  0  0  0  0  0  0  0
    7.7336   -2.1395    2.1973 O   0  0  0  0  0  0  0  0  0  0  0  0
    9.0973   -1.8133    1.9603 C   0  0  0  0  0  0  0  0  0  0  0  0
    5.4713   -1.6634    1.9292 C   0  0  0  0  0  0  0  0  0  0  0  0
    4.4066   -0.8872    1.4605 C   0  0  0  0  0  0  0  0  0  0  0  0
   -0.6391    0.2991    0.9414 N   0  0  0  0  0  0  0  0  0  0  0  0
   -1.4680   -0.5211    0.2181 N   0  0  0  0  0  0  0  0  0  0  0  0
   -1.1527   -0.3893   -1.0480 C   0  0  0  0  0  0  0  0  0  0  0  0
   -1.9449   -1.1935   -2.3522 S   0  0  0  0  0  0  0  0  0  0  0  0
   -3.3856   -0.1362   -2.6715 C   0  0  0  0  0  0  0  0  0  0  0  0
   -3.6992    0.8578   -1.5774 C   0  0  0  0  0  0  0  0  0  0  0  0
   -3.1813    1.9835   -1.6528 O   0  0  0  0  0  0  0  0  0  0  0  0
   -4.5615    0.5494   -0.5489 N   0  0  0  0  0  0  0  0  0  0  0  0
   -4.8171    1.5697    0.4792 C   0  0  0  0  0  0  0  0  0  0  0  0
   -5.9354    1.0520    1.3790 C   0  0  0  0  0  0  0  0  0  0  0  0
   -6.0087   -0.3823    0.9664 C   0  0  0  0  0  0  0  0  0  0  0  0
   -6.7767   -1.3696    1.5702 C   0  0  0  0  0  0  0  0  0  0  0  0
   -6.7369   -2.6548    1.0389 C   0  0  0  0  0  0  0  0  0  0  0  0
   -5.9369   -2.9281   -0.0760 C   0  0  0  0  0  0  0  0  0  0  0  0
   -5.1713   -1.9198   -0.6793 C   0  0  0  0  0  0  0  0  0  0  0  0
   -5.2148   -0.6375   -0.1598 C   0  0  0  0  0  0  0  0  0  0  0  0
    0.0393    2.9404   -2.3798 H   0  0  0  0  0  0  0  0  0  0  0  0
    0.6345    2.3424   -3.9392 H   0  0  0  0  0  0  0  0  0  0  0  0
   -0.9933    1.9199   -3.3891 H   0  0  0  0  0  0  0  0  0  0  0  0
    0.5799   -0.0086   -3.0781 H   0  0  0  0  0  0  0  0  0  0  0  0
    1.6549    0.9963   -2.1342 H   0  0  0  0  0  0  0  0  0  0  0  0
    1.4746    2.5711   -0.3463 H   0  0  0  0  0  0  0  0  0  0  0  0
    0.8961    2.4859    1.3220 H   0  0  0  0  0  0  0  0  0  0  0  0
    2.2768    0.5897    1.7445 H   0  0  0  0  0  0  0  0  0  0  0  0
    6.2017    1.5530   -0.0931 H   0  0  0  0  0  0  0  0  0  0  0  0
    8.0616    0.1965    0.7269 H   0  0  0  0  0  0  0  0  0  0  0  0
    9.7125   -2.5874    2.4292 H   0  0  0  0  0  0  0  0  0  0  0  0
    9.3591   -0.8549    2.4207 H   0  0  0  0  0  0  0  0  0  0  0  0
    9.3226   -1.8127    0.8889 H   0  0  0  0  0  0  0  0  0  0  0  0
    5.2674   -2.5752    2.4863 H   0  0  0  0  0  0  0  0  0  0  0  0
    3.3932   -1.2321    1.6439 H   0  0  0  0  0  0  0  0  0  0  0  0
   -3.1542    0.4470   -3.5715 H   0  0  0  0  0  0  0  0  0  0  0  0
   -4.2652   -0.7212   -2.9459 H   0  0  0  0  0  0  0  0  0  0  0  0
   -5.0807    2.5258    0.0130 H   0  0  0  0  0  0  0  0  0  0  0  0
   -3.8885    1.7160    1.0453 H   0  0  0  0  0  0  0  0  0  0  0  0
   -5.6875    1.1723    2.4373 H   0  0  0  0  0  0  0  0  0  0  0  0
   -6.8816    1.5570    1.1597 H   0  0  0  0  0  0  0  0  0  0  0  0
   -7.3897   -1.1492    2.4381 H   0  0  0  0  0  0  0  0  0  0  0  0
   -7.3203   -3.4505    1.4947 H   0  0  0  0  0  0  0  0  0  0  0  0
   -5.8995   -3.9399   -0.4737 H   0  0  0  0  0  0  0  0  0  0  0  0
   -4.5532   -2.2056   -1.5157 H   0  0  0  0  0  0  0  0  0  0  0  0
  1  2  1  0
  2  3  1  0
  3  4  1  0
  4  5  1  0
  5  6  1  0
  6  7  1  0
  7  8  2  0
  7  9  1  0
  9 10  2  0
 10 11  1  0
 11 12  2  0
 12 13  1  0
 13 14  1  0
 12 15  1  0
 15 16  2  0
  4 17  2  0
 17 18  1  0
 18 19  2  0
 19 20  1  0
 20 21  1  0
 21 22  1  0
 22 23  2  0
 22 24  1  0
 24 25  1  0
 25 26  1  0
 26 27  1  0
 27 28  2  0
 28 29  1  0
 29 30  2  0
 30 31  1  0
 31 32  2  0
 19  3  1  0
 32 24  1  0
 16  9  1  0
 32 27  1  0
  1 33  1  0
  1 34  1  0
  1 35  1  0
  2 36  1  0
  2 37  1  0
  5 38  1  0
  5 39  1  0
  6 40  1  0
 10 41  1  0
 11 42  1  0
 14 43  1  0
 14 44  1  0
 14 45  1  0
 15 46  1  0
 16 47  1  0
 21 48  1  0
 21 49  1  0
 25 50  1  0
 25 51  1  0
 26 52  1  0
 26 53  1  0
 28 54  1  0
 29 55  1  0
 30 56  1  0
 31 57  1  0
M  END
$$$$
