
     RDKit          3D

 57 59  0  0  0  0  0  0  0  0999 V2000
    9.6152    0.0774    0.3160 C   0  0  0  0  0  0  0  0  0  0  0  0
    8.1947   -0.3844    0.0079 C   0  0  0  0  0  0  0  0  0  0  0  0
    8.2180   -1.7127   -0.7389 C   0  0  0  0  0  0  0  0  0  0  0  0
    7.5479    0.5660   -0.8427 O   0  0  0  0  0  0  0  0  0  0  0  0
    6.9329    1.6548   -0.1611 C   0  0  0  0  0  0  0  0  0  0  0  0
    5.5425    1.2910    0.3539 C   0  0  0  0  0  0  0  0  0  0  0  0
    4.6297    0.7928   -0.7621 C   0  0  0  0  0  0  0  0  0  0  0  0
    3.2856    0.5476   -0.2657 N   0  0  0  0  0  0  0  0  0  0  0  0
    2.4027   -0.2221   -0.9970 C   0  0  0  0  0  0  0  0  0  0  0  0
    2.7007   -0.8082   -2.0306 O   0  0  0  0  0  0  0  0  0  0  0  0
    1.0038   -0.2875   -0.4901 C   0  0  0  0  0  0  0  0  0  0  0  0
    0.6957   -0.1149    0.8672 C   0  0  0  0  0  0  0  0  0  0  0  0
   -0.6325   -0.1898    1.2965 C   0  0  0  0  0  0  0  0  0  0  0  0
   -1.6487   -0.4484    0.3704 C   0  0  0  0  0  0  0  0  0  0  0  0
   -3.0611   -0.5288    0.7899 C   0  0  0  0  0  0  0  0  0  0  0  0
   -3.3509   -0.2893    1.9597 O   0  0  0  0  0  0  0  0  0  0  0  0
   -3.9891   -0.8604   -0.1946 N   0  0  0  0  0  0  0  0  0  0  0  0
   -5.3930   -0.9500    0.1967 C   0  0  0  0  0  0  0  0  0  0  0  0
   -6.0923    0.4104    0.1088 C   0  0  0  0  0  0  0  0  0  0  0  0
   -7.5413    0.3185    0.5150 C   0  0  0  0  0  0  0  0  0  0  0  0
   -8.5283    0.0315   -0.4371 C   0  0  0  0  0  0  0  0  0  0  0  0
   -9.8665   -0.0750   -0.0561 C   0  0  0  0  0  0  0  0  0  0  0  0
  -10.2288    0.0997    1.2784 C   0  0  0  0  0  0  0  0  0  0  0  0
   -9.2531    0.3791    2.2338 C   0  0  0  0  0  0  0  0  0  0  0  0
   -7.9142    0.4860    1.8553 C   0  0  0  0  0  0  0  0  0  0  0  0
   -3.6830   -0.9936   -1.5398 C   0  0  0  0  0  0  0  0  0  0  0  0
   -4.5190   -1.1831   -2.4217 O   0  0  0  0  0  0  0  0  0  0  0  0
   -2.3641   -0.8916   -1.8819 N   0  0  0  0  0  0  0  0  0  0  0  0
   -1.3424   -0.6362   -0.9721 C   0  0  0  0  0  0  0  0  0  0  0  0
   -0.0205   -0.5600   -1.4094 C   0  0  0  0  0  0  0  0  0  0  0  0
   10.1533   -0.6674    0.9106 H   0  0  0  0  0  0  0  0  0  0  0  0
   10.1755    0.2615   -0.6074 H   0  0  0  0  0  0  0  0  0  0  0  0
    9.6114    1.0195    0.8730 H   0  0  0  0  0  0  0  0  0  0  0  0
    7.6335   -0.5171    0.9394 H   0  0  0  0  0  0  0  0  0  0  0  0
    7.1973   -2.0339   -0.9739 H   0  0  0  0  0  0  0  0  0  0  0  0
    8.7458   -1.6189   -1.6945 H   0  0  0  0  0  0  0  0  0  0  0  0
    8.7010   -2.4952   -0.1457 H   0  0  0  0  0  0  0  0  0  0  0  0
    7.5655    2.0158    0.6568 H   0  0  0  0  0  0  0  0  0  0  0  0
    6.8451    2.4741   -0.8831 H   0  0  0  0  0  0  0  0  0  0  0  0
    5.0996    2.1709    0.8360 H   0  0  0  0  0  0  0  0  0  0  0  0
    5.6138    0.5139    1.1237 H   0  0  0  0  0  0  0  0  0  0  0  0
    5.0174   -0.1320   -1.2033 H   0  0  0  0  0  0  0  0  0  0  0  0
    4.5482    1.5386   -1.5607 H   0  0  0  0  0  0  0  0  0  0  0  0
    2.8962    1.2328    0.3674 H   0  0  0  0  0  0  0  0  0  0  0  0
    1.4762    0.0499    1.6054 H   0  0  0  0  0  0  0  0  0  0  0  0
   -0.8718   -0.0575    2.3502 H   0  0  0  0  0  0  0  0  0  0  0  0
   -5.9006   -1.6781   -0.4482 H   0  0  0  0  0  0  0  0  0  0  0  0
   -5.4559   -1.3413    1.2197 H   0  0  0  0  0  0  0  0  0  0  0  0
   -5.5805    1.1446    0.7442 H   0  0  0  0  0  0  0  0  0  0  0  0
   -6.0230    0.8101   -0.9111 H   0  0  0  0  0  0  0  0  0  0  0  0
   -8.2596   -0.1121   -1.4819 H   0  0  0  0  0  0  0  0  0  0  0  0
  -10.6265   -0.2957   -0.8011 H   0  0  0  0  0  0  0  0  0  0  0  0
  -11.2711    0.0162    1.5742 H   0  0  0  0  0  0  0  0  0  0  0  0
   -9.5346    0.5124    3.2750 H   0  0  0  0  0  0  0  0  0  0  0  0
   -7.1625    0.6998    2.6126 H   0  0  0  0  0  0  0  0  0  0  0  0
   -2.1611   -1.0120   -2.8669 H   0  0  0  0  0  0  0  0  0  0  0  0
    0.2266   -0.7094   -2.4587 H   0  0  0  0  0  0  0  0  0  0  0  0
  1  2  1  0
  2  3  1  0
  2  4  1  0
  4  5  1  0
  5  6  1  0
  6  7  1  0
  7  8  1  0
  8  9  1  0
  9 10  2  0
  9 11  1  0
 11 12  2  0
 12 13  1  0
 13 14  2  0
 14 15  1  0
 15 16  2  0
 15 17  1  0
 17 18  1  0
 18 19  1  0
 19 20  1  0
 20 21  2  0
 21 22  1  0
 22 23  2  0
 23 24  1  0
 24 25  2  0
 17 26  1  0
 26 27  2  0
 26 28  1  0
 28 29  1  0
 29 30  2  0
 30 11  1  0
 29 14  1  0
 25 20  1  0
  1 31  1  0
  1 32  1  0
  1 33  1  0
  2 34  1  0
  3 35  1  0
  3 36  1  0
  3 37  1  0
  5 38  1  0
  5 39  1  0
  6 40  1  0
  6 41  1  0
  7 42  1  0
  7 43  1  0
  8 44  1  0
 12 45  1  0
 13 46  1  0
 18 47  1  0
 18 48  1  0
 19 49  1  0
 19 50  1  0
 21 51  1  0
 22 52  1  0
 23 53  1  0
 24 54  1  0
 25 55  1  0
 28 56  1  0
 30 57  1  0
M  END
$$$$
