
     RDKit          3D

 50 53  0  0  0  0  0  0  0  0999 V2000
    8.7933    0.7496    1.5831 C   0  0  0  0  0  0  0  0  0  0  0  0
    8.0934    1.3182    0.4835 O   0  0  0  0  0  0  0  0  0  0  0  0
    6.8444    0.8275    0.2252 C   0  0  0  0  0  0  0  0  0  0  0  0
    6.1875   -0.1703    0.9447 C   0  0  0  0  0  0  0  0  0  0  0  0
    4.9027   -0.5782    0.5679 C   0  0  0  0  0  0  0  0  0  0  0  0
    4.2617    0.0122   -0.5283 C   0  0  0  0  0  0  0  0  0  0  0  0
    2.9033   -0.4473   -0.8980 C   0  0  0  0  0  0  0  0  0  0  0  0
    2.3176   -1.4568   -0.3343 N   0  0  0  0  0  0  0  0  0  0  0  0
    1.0520   -1.5983   -0.9456 O   0  0  0  0  0  0  0  0  0  0  0  0
    0.7625   -0.4013   -1.6639 C   0  0  0  0  0  0  0  0  0  0  0  0
   -0.1630    0.5522   -0.8825 C   0  0  0  0  0  0  0  0  0  0  0  0
    0.1365    1.7387   -0.7185 O   0  0  0  0  0  0  0  0  0  0  0  0
   -1.3783    0.0529   -0.4296 N   0  0  0  0  0  0  0  0  0  0  0  0
   -2.2432    0.9203    0.3808 C   0  0  0  0  0  0  0  0  0  0  0  0
   -3.0870    0.1265    1.3897 C   0  0  0  0  0  0  0  0  0  0  0  0
   -3.9244   -0.8962    0.7282 N   0  0  0  0  0  0  0  0  0  0  0  0
   -5.3114   -0.7199    0.6682 C   0  0  0  0  0  0  0  0  0  0  0  0
   -6.1392   -1.8553    0.5956 C   0  0  0  0  0  0  0  0  0  0  0  0
   -7.5298   -1.7415    0.5284 C   0  0  0  0  0  0  0  0  0  0  0  0
   -8.1088   -0.4823    0.5257 C   0  0  0  0  0  0  0  0  0  0  0  0
   -9.4412   -0.3661    0.4569 F   0  0  0  0  0  0  0  0  0  0  0  0
   -7.3236    0.6598    0.5892 C   0  0  0  0  0  0  0  0  0  0  0  0
   -5.9319    0.5391    0.6612 C   0  0  0  0  0  0  0  0  0  0  0  0
   -3.3607   -1.4841   -0.5111 C   0  0  0  0  0  0  0  0  0  0  0  0
   -1.8278   -1.3400   -0.5836 C   0  0  0  0  0  0  0  0  0  0  0  0
    2.1148    0.1989   -1.9844 C   0  0  0  0  0  0  0  0  0  0  0  0
    4.9196    1.0106   -1.2502 C   0  0  0  0  0  0  0  0  0  0  0  0
    6.2040    1.4129   -0.8705 C   0  0  0  0  0  0  0  0  0  0  0  0
    9.7696    1.2391    1.6497 H   0  0  0  0  0  0  0  0  0  0  0  0
    8.2647    0.9322    2.5234 H   0  0  0  0  0  0  0  0  0  0  0  0
    8.9702   -0.3191    1.4286 H   0  0  0  0  0  0  0  0  0  0  0  0
    6.6413   -0.6502    1.8055 H   0  0  0  0  0  0  0  0  0  0  0  0
    4.4057   -1.3600    1.1404 H   0  0  0  0  0  0  0  0  0  0  0  0
    0.2467   -0.6557   -2.5970 H   0  0  0  0  0  0  0  0  0  0  0  0
   -1.6374    1.6614    0.9130 H   0  0  0  0  0  0  0  0  0  0  0  0
   -2.8919    1.4592   -0.3201 H   0  0  0  0  0  0  0  0  0  0  0  0
   -2.4082   -0.4052    2.0683 H   0  0  0  0  0  0  0  0  0  0  0  0
   -3.6670    0.8021    2.0267 H   0  0  0  0  0  0  0  0  0  0  0  0
   -5.6957   -2.8480    0.6188 H   0  0  0  0  0  0  0  0  0  0  0  0
   -8.1563   -2.6254    0.4833 H   0  0  0  0  0  0  0  0  0  0  0  0
   -7.7955    1.6375    0.5729 H   0  0  0  0  0  0  0  0  0  0  0  0
   -5.3448    1.4523    0.6852 H   0  0  0  0  0  0  0  0  0  0  0  0
   -3.6173   -2.5475   -0.5758 H   0  0  0  0  0  0  0  0  0  0  0  0
   -3.7916   -0.9799   -1.3866 H   0  0  0  0  0  0  0  0  0  0  0  0
   -1.4757   -1.7411   -1.5374 H   0  0  0  0  0  0  0  0  0  0  0  0
   -1.3602   -1.9171    0.2231 H   0  0  0  0  0  0  0  0  0  0  0  0
    2.4905   -0.1672   -2.9456 H   0  0  0  0  0  0  0  0  0  0  0  0
    2.1544    1.2889   -1.9606 H   0  0  0  0  0  0  0  0  0  0  0  0
    4.4628    1.4905   -2.1092 H   0  0  0  0  0  0  0  0  0  0  0  0
    6.7130    2.1919   -1.4342 H   0  0  0  0  0  0  0  0  0  0  0  0
  1  2  1  0
  2  3  1  0
  3  4  2  0
  4  5  1  0
  5  6  2  0
  6  7  1  0
  7  8  2  0
  8  9  1  0
  9 10  1  0
 10 11  1  0
 11 12  2  0
 11 13  1  0
 13 14  1  0
 14 15  1  0
 15 16  1  0
 16 17  1  0
 17 18  2  0
 18 19  1  0
 19 20  2  0
 20 21  1  0
 20 22  1  0
 22 23  2  0
 16 24  1  0
 24 25  1  0
 10 26  1  0
  6 27  1  0
 27 28  2  0
 28  3  1  0
 26  7  1  0
 25 13  1  0
 23 17  1  0
  1 29  1  0
  1 30  1  0
  1 31  1  0
  4 32  1  0
  5 33  1  0
 10 34  1  0
 14 35  1  0
 14 36  1  0
 15 37  1  0
 15 38  1  0
 18 39  1  0
 19 40  1  0
 22 41  1  0
 23 42  1  0
 24 43  1  0
 24 44  1  0
 25 45  1  0
 25 46  1  0
 26 47  1  0
 26 48  1  0
 27 49  1  0
 28 50  1  0
M  END
$$$$
