
     RDKit          3D

 44 45  0  0  0  0  0  0  0  0999 V2000
    2.0265   -2.6777    0.6159 C   0  0  0  0  0  0  0  0  0  0  0  0
    1.9334   -1.3035    0.0015 C   0  0  0  0  0  0  0  0  0  0  0  0
    0.9643   -0.9317   -0.8627 C   0  0  0  0  0  0  0  0  0  0  0  0
   -0.1265   -1.8273   -1.3983 C   0  0  0  0  0  0  0  0  0  0  0  0
   -1.3838   -1.6435   -0.5642 C   0  0  0  0  0  0  0  0  0  0  0  0
   -1.6186   -2.3436    0.4161 O   0  0  0  0  0  0  0  0  0  0  0  0
   -2.2099   -0.6276   -0.9981 N   0  0  0  0  0  0  0  0  0  0  0  0
   -3.4082   -0.2132   -0.2578 C   0  0  2  0  0  0  0  0  0  0  0  0
   -4.5295    0.1176   -1.2623 C   0  0  0  0  0  0  0  0  0  0  0  0
   -4.8759   -1.0448   -2.0167 O   0  0  0  0  0  0  0  0  0  0  0  0
   -3.1411    0.9556    0.7269 C   0  0  0  0  0  0  0  0  0  0  0  0
   -2.1501    0.5696    1.8293 C   0  0  0  0  0  0  0  0  0  0  0  0
   -2.6758    2.2462    0.0470 C   0  0  0  0  0  0  0  0  0  0  0  0
    0.8789    0.4579   -1.3895 C   0  0  0  0  0  0  0  0  0  0  0  0
   -0.0420    0.7981   -2.1300 O   0  0  0  0  0  0  0  0  0  0  0  0
    1.8550    1.3543   -1.0071 O   0  0  0  0  0  0  0  0  0  0  0  0
    2.8797    0.9792   -0.1261 C   0  0  0  0  0  0  0  0  0  0  0  0
    3.8079    1.9711    0.1937 C   0  0  0  0  0  0  0  0  0  0  0  0
    4.8454    1.6656    1.0600 C   0  0  0  0  0  0  0  0  0  0  0  0
    5.7388    2.6497    1.3579 O   0  0  0  0  0  0  0  0  0  0  0  0
    4.9607    0.3909    1.6009 C   0  0  0  0  0  0  0  0  0  0  0  0
    4.0187   -0.5919    1.2671 C   0  0  0  0  0  0  0  0  0  0  0  0
    2.9548   -0.3118    0.3947 C   0  0  0  0  0  0  0  0  0  0  0  0
    1.1867   -3.3290    0.3646 H   0  0  0  0  0  0  0  0  0  0  0  0
    2.0344   -2.6115    1.7098 H   0  0  0  0  0  0  0  0  0  0  0  0
    2.9388   -3.1853    0.2845 H   0  0  0  0  0  0  0  0  0  0  0  0
   -0.3428   -1.6174   -2.4530 H   0  0  0  0  0  0  0  0  0  0  0  0
    0.1475   -2.8865   -1.3846 H   0  0  0  0  0  0  0  0  0  0  0  0
   -1.8069    0.0426   -1.6559 H   0  0  0  0  0  0  0  0  0  0  0  0
   -3.7398   -1.0821    0.3257 H   0  0  0  0  0  0  0  0  0  0  0  0
   -5.4313    0.4617   -0.7472 H   0  0  0  0  0  0  0  0  0  0  0  0
   -4.2192    0.8864   -1.9766 H   0  0  0  0  0  0  0  0  0  0  0  0
   -4.0398   -1.5147   -2.1921 H   0  0  0  0  0  0  0  0  0  0  0  0
   -4.0941    1.1802    1.2253 H   0  0  0  0  0  0  0  0  0  0  0  0
   -2.4648   -0.3495    2.3341 H   0  0  0  0  0  0  0  0  0  0  0  0
   -2.0935    1.3588    2.5872 H   0  0  0  0  0  0  0  0  0  0  0  0
   -1.1402    0.4204    1.4347 H   0  0  0  0  0  0  0  0  0  0  0  0
   -3.4088    2.6034   -0.6820 H   0  0  0  0  0  0  0  0  0  0  0  0
   -2.5443    3.0429    0.7878 H   0  0  0  0  0  0  0  0  0  0  0  0
   -1.7190    2.1123   -0.4648 H   0  0  0  0  0  0  0  0  0  0  0  0
    3.7203    2.9676   -0.2280 H   0  0  0  0  0  0  0  0  0  0  0  0
    6.4013    2.2990    1.9757 H   0  0  0  0  0  0  0  0  0  0  0  0
    5.7701    0.1393    2.2798 H   0  0  0  0  0  0  0  0  0  0  0  0
    4.1430   -1.5781    1.7070 H   0  0  0  0  0  0  0  0  0  0  0  0
  1  2  1  0
  2  3  2  0
  3  4  1  0
  4  5  1  0
  5  6  2  0
  5  7  1  0
  7  8  1  0
  8  9  1  0
  9 10  1  0
  8 11  1  0
 11 12  1  0
 11 13  1  0
  3 14  1  0
 14 15  2  0
 14 16  1  0
 16 17  1  0
 17 18  2  0
 18 19  1  0
 19 20  1  0
 19 21  2  0
 21 22  1  0
 22 23  2  0
 23  2  1  0
 23 17  1  0
  1 24  1  0
  1 25  1  0
  1 26  1  0
  4 27  1  0
  4 28  1  0
  7 29  1  0
  8 30  1  1
  9 31  1  0
  9 32  1  0
 10 33  1  0
 11 34  1  0
 12 35  1  0
 12 36  1  0
 12 37  1  0
 13 38  1  0
 13 39  1  0
 13 40  1  0
 18 41  1  0
 20 42  1  0
 21 43  1  0
 22 44  1  0
M  END
$$$$
