
     RDKit          3D

 45 47  0  0  0  0  0  0  0  0999 V2000
   -2.8742    4.1818   -1.4020 C   0  0  0  0  0  0  0  0  0  0  0  0
   -3.7865    3.1003   -1.2794 O   0  0  0  0  0  0  0  0  0  0  0  0
   -3.2674    1.8569   -1.0249 C   0  0  0  0  0  0  0  0  0  0  0  0
   -1.9334    1.5987   -0.6982 C   0  0  0  0  0  0  0  0  0  0  0  0
   -1.4948    0.2892   -0.4475 C   0  0  0  0  0  0  0  0  0  0  0  0
   -0.1277    0.1222   -0.1293 N   0  0  0  0  0  0  0  0  0  0  0  0
    0.5131   -1.0458    0.2466 C   0  0  0  0  0  0  0  0  0  0  0  0
   -0.0035   -2.1381    0.4454 O   0  0  0  0  0  0  0  0  0  0  0  0
    1.9796   -0.9041    0.4650 C   0  0  0  0  0  0  0  0  0  0  0  0
    2.7669   -0.1168   -0.3819 C   0  0  0  0  0  0  0  0  0  0  0  0
    4.1433    0.0138   -0.1661 C   0  0  0  0  0  0  0  0  0  0  0  0
    4.7077   -0.6751    0.9192 C   0  0  0  0  0  0  0  0  0  0  0  0
    3.9431   -1.4813    1.7676 C   0  0  0  0  0  0  0  0  0  0  0  0
    4.8245   -2.0279    2.7393 C   0  0  0  0  0  0  0  0  0  0  0  0
    6.0886   -1.5545    2.4731 C   0  0  0  0  0  0  0  0  0  0  0  0
    6.0100   -0.7428    1.3727 N   0  0  0  0  0  0  0  0  0  0  0  0
    7.1347   -0.0598    0.7730 C   0  0  0  0  0  0  0  0  0  0  0  0
    2.5601   -1.6041    1.5330 C   0  0  0  0  0  0  0  0  0  0  0  0
   -2.4041   -0.7699   -0.5370 C   0  0  0  0  0  0  0  0  0  0  0  0
   -3.7447   -0.5363   -0.8606 C   0  0  0  0  0  0  0  0  0  0  0  0
   -4.7048   -1.5099   -0.9752 O   0  0  0  0  0  0  0  0  0  0  0  0
   -4.2895   -2.8602   -0.8153 C   0  0  0  0  0  0  0  0  0  0  0  0
   -4.1693    0.7832   -1.0844 C   0  0  0  0  0  0  0  0  0  0  0  0
   -5.4771    1.0252   -1.4450 O   0  0  0  0  0  0  0  0  0  0  0  0
   -6.2724    1.2139   -0.2760 C   0  0  0  0  0  0  0  0  0  0  0  0
   -3.4442    5.0692   -1.6934 H   0  0  0  0  0  0  0  0  0  0  0  0
   -2.1326    3.9906   -2.1847 H   0  0  0  0  0  0  0  0  0  0  0  0
   -2.3913    4.3972   -0.4434 H   0  0  0  0  0  0  0  0  0  0  0  0
   -1.2204    2.4122   -0.6272 H   0  0  0  0  0  0  0  0  0  0  0  0
    0.4267    0.9683   -0.1054 H   0  0  0  0  0  0  0  0  0  0  0  0
    2.3278    0.3826   -1.2423 H   0  0  0  0  0  0  0  0  0  0  0  0
    4.7516    0.6201   -0.8301 H   0  0  0  0  0  0  0  0  0  0  0  0
    4.5594   -2.6985    3.5464 H   0  0  0  0  0  0  0  0  0  0  0  0
    7.0294   -1.7356    2.9764 H   0  0  0  0  0  0  0  0  0  0  0  0
    8.0441   -0.2866    1.3353 H   0  0  0  0  0  0  0  0  0  0  0  0
    6.9411    1.0155    0.8015 H   0  0  0  0  0  0  0  0  0  0  0  0
    7.2407   -0.4079   -0.2576 H   0  0  0  0  0  0  0  0  0  0  0  0
    1.9491   -2.2324    2.1763 H   0  0  0  0  0  0  0  0  0  0  0  0
   -2.0642   -1.7821   -0.3608 H   0  0  0  0  0  0  0  0  0  0  0  0
   -3.9204   -3.0414    0.1995 H   0  0  0  0  0  0  0  0  0  0  0  0
   -3.5423   -3.1368   -1.5665 H   0  0  0  0  0  0  0  0  0  0  0  0
   -5.1651   -3.4985   -0.9680 H   0  0  0  0  0  0  0  0  0  0  0  0
   -7.2967    1.4225   -0.5989 H   0  0  0  0  0  0  0  0  0  0  0  0
   -5.9230    2.0706    0.3108 H   0  0  0  0  0  0  0  0  0  0  0  0
   -6.2923    0.3122    0.3456 H   0  0  0  0  0  0  0  0  0  0  0  0
  1  2  1  0
  2  3  1  0
  3  4  2  0
  4  5  1  0
  5  6  1  0
  6  7  1  0
  7  8  2  0
  7  9  1  0
  9 10  2  0
 10 11  1  0
 11 12  2  0
 12 13  1  0
 13 14  1  0
 14 15  2  0
 15 16  1  0
 16 17  1  0
 13 18  2  0
  5 19  2  0
 19 20  1  0
 20 21  1  0
 21 22  1  0
 20 23  2  0
 23 24  1  0
 24 25  1  0
 23  3  1  0
 18  9  1  0
 16 12  1  0
  1 26  1  0
  1 27  1  0
  1 28  1  0
  4 29  1  0
  6 30  1  0
 10 31  1  0
 11 32  1  0
 14 33  1  0
 15 34  1  0
 17 35  1  0
 17 36  1  0
 17 37  1  0
 18 38  1  0
 19 39  1  0
 22 40  1  0
 22 41  1  0
 22 42  1  0
 25 43  1  0
 25 44  1  0
 25 45  1  0
M  END
$$$$
