
     RDKit          3D

 51 53  0  0  0  0  0  0  0  0999 V2000
   -1.4185   -2.7382   -1.7245 C   0  0  0  0  0  0  0  0  0  0  0  0
   -1.9596   -1.5827   -0.9296 C   0  0  0  0  0  0  0  0  0  0  0  0
   -3.1316   -1.0862   -1.3858 N   0  0  0  0  0  0  0  0  0  0  0  0
   -3.7238   -0.0629   -0.7280 C   0  0  0  0  0  0  0  0  0  0  0  0
   -3.1644    0.5062    0.4045 C   0  0  0  0  0  0  0  0  0  0  0  0
   -1.9142    0.0231    0.8752 C   0  0  0  0  0  0  0  0  0  0  0  0
   -1.2606    0.6532    2.0834 C   0  0  0  0  0  0  0  0  0  0  0  0
   -1.3083   -1.0693    0.2018 C   0  0  0  0  0  0  0  0  0  0  0  0
    0.0121   -1.6647    0.6540 C   0  0  0  0  0  0  0  0  0  0  0  0
    1.2079   -0.9180    0.0624 C   0  0  0  0  0  0  0  0  0  0  0  0
    2.5200   -1.5169    0.5227 C   0  0  0  0  0  0  0  0  0  0  0  0
    2.6017   -2.5193    1.2225 O   0  0  0  0  0  0  0  0  0  0  0  0
    3.6180   -0.8212    0.0704 N   0  0  0  0  0  0  0  0  0  0  0  0
    4.9542   -1.3035    0.3359 C   0  0  0  0  0  0  0  0  0  0  0  0
    5.9821   -0.2919   -0.0687 C   0  0  0  0  0  0  0  0  0  0  0  0
    6.2027    0.8645    0.6859 C   0  0  0  0  0  0  0  0  0  0  0  0
    7.1529    1.7914    0.2678 C   0  0  0  0  0  0  0  0  0  0  0  0
    7.8503    1.5334   -0.9001 C   0  0  0  0  0  0  0  0  0  0  0  0
    7.6604    0.4330   -1.6591 N   0  0  0  0  0  0  0  0  0  0  0  0
    6.7355   -0.4533   -1.2265 C   0  0  0  0  0  0  0  0  0  0  0  0
   -3.9315    1.5871    1.0661 C   0  0  0  0  0  0  0  0  0  0  0  0
   -3.6047    1.9974    2.1770 O   0  0  0  0  0  0  0  0  0  0  0  0
   -5.0378    2.0852    0.3917 N   0  0  0  0  0  0  0  0  0  0  0  0
   -5.7582    3.1874    1.0048 C   0  0  0  0  0  0  0  0  0  0  0  0
   -5.6265    1.4742   -0.7033 C   0  0  0  0  0  0  0  0  0  0  0  0
   -6.7046    1.8637   -1.1573 O   0  0  0  0  0  0  0  0  0  0  0  0
   -4.9486    0.4050   -1.2450 N   0  0  0  0  0  0  0  0  0  0  0  0
   -5.4875   -0.2789   -2.4121 C   0  0  0  0  0  0  0  0  0  0  0  0
   -0.4031   -2.5297   -2.0734 H   0  0  0  0  0  0  0  0  0  0  0  0
   -2.0374   -2.9230   -2.6094 H   0  0  0  0  0  0  0  0  0  0  0  0
   -1.4228   -3.6511   -1.1214 H   0  0  0  0  0  0  0  0  0  0  0  0
   -1.2142    1.7413    1.9689 H   0  0  0  0  0  0  0  0  0  0  0  0
   -0.2246    0.3440    2.2319 H   0  0  0  0  0  0  0  0  0  0  0  0
   -1.8114    0.3887    2.9914 H   0  0  0  0  0  0  0  0  0  0  0  0
    0.0649   -2.7255    0.3811 H   0  0  0  0  0  0  0  0  0  0  0  0
    0.0613   -1.6851    1.7494 H   0  0  0  0  0  0  0  0  0  0  0  0
    1.1897    0.1385    0.3540 H   0  0  0  0  0  0  0  0  0  0  0  0
    1.1804   -0.9598   -1.0329 H   0  0  0  0  0  0  0  0  0  0  0  0
    3.4959   -0.1157   -0.6455 H   0  0  0  0  0  0  0  0  0  0  0  0
    5.0873   -2.2447   -0.2105 H   0  0  0  0  0  0  0  0  0  0  0  0
    5.0494   -1.5381    1.4029 H   0  0  0  0  0  0  0  0  0  0  0  0
    5.6383    1.0434    1.5981 H   0  0  0  0  0  0  0  0  0  0  0  0
    7.3451    2.6928    0.8389 H   0  0  0  0  0  0  0  0  0  0  0  0
    8.6024    2.2256   -1.2679 H   0  0  0  0  0  0  0  0  0  0  0  0
    6.6142   -1.3248   -1.8651 H   0  0  0  0  0  0  0  0  0  0  0  0
   -6.5202    2.7729    1.6725 H   0  0  0  0  0  0  0  0  0  0  0  0
   -6.2496    3.8015    0.2439 H   0  0  0  0  0  0  0  0  0  0  0  0
   -5.0847    3.8252    1.5849 H   0  0  0  0  0  0  0  0  0  0  0  0
   -6.4473    0.1420   -2.7246 H   0  0  0  0  0  0  0  0  0  0  0  0
   -4.7870   -0.1792   -3.2479 H   0  0  0  0  0  0  0  0  0  0  0  0
   -5.6438   -1.3367   -2.1760 H   0  0  0  0  0  0  0  0  0  0  0  0
  1  2  1  0
  2  3  2  0
  3  4  1  0
  4  5  2  0
  5  6  1  0
  6  7  1  0
  6  8  2  0
  8  9  1  0
  9 10  1  0
 10 11  1  0
 11 12  2  0
 11 13  1  0
 13 14  1  0
 14 15  1  0
 15 16  2  0
 16 17  1  0
 17 18  2  0
 18 19  1  0
 19 20  2  0
  5 21  1  0
 21 22  2  0
 21 23  1  0
 23 24  1  0
 23 25  1  0
 25 26  2  0
 25 27  1  0
 27 28  1  0
  8  2  1  0
 20 15  1  0
 27  4  1  0
  1 29  1  0
  1 30  1  0
  1 31  1  0
  7 32  1  0
  7 33  1  0
  7 34  1  0
  9 35  1  0
  9 36  1  0
 10 37  1  0
 10 38  1  0
 13 39  1  0
 14 40  1  0
 14 41  1  0
 16 42  1  0
 17 43  1  0
 18 44  1  0
 20 45  1  0
 24 46  1  0
 24 47  1  0
 24 48  1  0
 28 49  1  0
 28 50  1  0
 28 51  1  0
M  END
$$$$
