
     RDKit          3D

 65 68  0  0  0  0  0  0  0  0999 V2000
   -4.4314    6.5123   -0.7691 C   0  0  0  0  0  0  0  0  0  0  0  0
   -3.9526    5.5589   -1.7112 O   0  0  0  0  0  0  0  0  0  0  0  0
   -3.5516    4.3493   -1.2148 C   0  0  0  0  0  0  0  0  0  0  0  0
   -3.2254    3.3987   -2.1864 C   0  0  0  0  0  0  0  0  0  0  0  0
   -2.7904    2.1205   -1.8219 C   0  0  0  0  0  0  0  0  0  0  0  0
   -2.6795    1.7872   -0.4720 C   0  0  0  0  0  0  0  0  0  0  0  0
   -2.2023    0.5009   -0.0301 N   0  0  0  0  0  0  0  0  0  0  0  0
   -0.7603    0.2315   -0.2904 C   0  0  0  0  0  0  0  0  0  0  0  0
    0.1966    1.0352    0.5895 C   0  0  0  0  0  0  0  0  0  0  0  0
   -0.1905    1.7526    1.5163 O   0  0  0  0  0  0  0  0  0  0  0  0
    1.5570    0.9129    0.3086 N   0  0  0  0  0  0  0  0  0  0  0  0
    2.1468    0.0108   -0.6863 C   0  0  0  0  0  0  0  0  0  0  0  0
    3.5137   -0.5278   -0.2322 C   0  0  0  0  0  0  0  0  0  0  0  0
    4.4539    0.5344    0.1385 N   0  0  0  0  0  0  0  0  0  0  0  0
    5.8448    0.4390   -0.0102 C   0  0  0  0  0  0  0  0  0  0  0  0
    6.5328    1.4608   -0.0225 O   0  0  0  0  0  0  0  0  0  0  0  0
    6.4355   -0.8828   -0.1340 C   0  0  0  0  0  0  0  0  0  0  0  0
    6.1626   -2.1040    0.4612 C   0  0  0  0  0  0  0  0  0  0  0  0
    7.1121   -3.0301   -0.0391 C   0  0  0  0  0  0  0  0  0  0  0  0
    7.9172   -2.3222   -0.8981 C   0  0  0  0  0  0  0  0  0  0  0  0
    7.5222   -1.0251   -0.9586 O   0  0  0  0  0  0  0  0  0  0  0  0
    3.8781    1.8566    0.4016 C   0  0  0  0  0  0  0  0  0  0  0  0
    2.4909    1.7725    1.0503 C   0  0  0  0  0  0  0  0  0  0  0  0
   -3.2285   -0.7939   -0.4496 S   0  0  0  0  0  6  0  0  0  0  0  0
   -2.8902   -1.1991   -1.7977 O   0  0  0  0  0  0  0  0  0  0  0  0
   -4.5888   -0.4951   -0.0635 O   0  0  0  0  0  0  0  0  0  0  0  0
   -2.8220   -2.1469    0.5414 C   0  0  0  0  0  0  0  0  0  0  0  0
   -2.6697   -2.1018    1.9461 C   0  0  0  0  0  0  0  0  0  0  0  0
   -2.8451   -0.9561    2.8752 C   0  0  0  0  0  0  0  0  0  0  0  0
   -2.3214   -3.3017    2.4269 N   0  0  0  0  0  0  0  0  0  0  0  0
   -2.3707   -4.1194    1.3643 N   0  0  0  0  0  0  0  0  0  0  0  0
   -2.1596   -5.5332    1.5819 C   0  0  0  0  0  0  0  0  0  0  0  0
   -2.5846   -3.4647    0.1769 C   0  0  0  0  0  0  0  0  0  0  0  0
   -2.5797   -4.1319   -1.1520 C   0  0  0  0  0  0  0  0  0  0  0  0
   -2.9953    2.7360    0.5010 C   0  0  0  0  0  0  0  0  0  0  0  0
   -3.4321    4.0141    0.1340 C   0  0  0  0  0  0  0  0  0  0  0  0
   -5.3049    6.1291   -0.2356 H   0  0  0  0  0  0  0  0  0  0  0  0
   -3.6421    6.8172   -0.0747 H   0  0  0  0  0  0  0  0  0  0  0  0
   -4.7438    7.4019   -1.3243 H   0  0  0  0  0  0  0  0  0  0  0  0
   -3.3179    3.6593   -3.2394 H   0  0  0  0  0  0  0  0  0  0  0  0
   -2.5530    1.4007   -2.6016 H   0  0  0  0  0  0  0  0  0  0  0  0
   -0.5262    0.4234   -1.3425 H   0  0  0  0  0  0  0  0  0  0  0  0
   -0.5461   -0.8205   -0.0653 H   0  0  0  0  0  0  0  0  0  0  0  0
    2.2573    0.5922   -1.6087 H   0  0  0  0  0  0  0  0  0  0  0  0
    1.4802   -0.8281   -0.8982 H   0  0  0  0  0  0  0  0  0  0  0  0
    3.3733   -1.1451    0.6626 H   0  0  0  0  0  0  0  0  0  0  0  0
    3.9418   -1.1503   -1.0260 H   0  0  0  0  0  0  0  0  0  0  0  0
    5.3919   -2.2970    1.1927 H   0  0  0  0  0  0  0  0  0  0  0  0
    7.2105   -4.0780    0.2126 H   0  0  0  0  0  0  0  0  0  0  0  0
    8.7749   -2.5790   -1.5067 H   0  0  0  0  0  0  0  0  0  0  0  0
    3.8087    2.3685   -0.5672 H   0  0  0  0  0  0  0  0  0  0  0  0
    4.5568    2.4452    1.0312 H   0  0  0  0  0  0  0  0  0  0  0  0
    2.0615    2.7787    1.1423 H   0  0  0  0  0  0  0  0  0  0  0  0
    2.5749    1.3548    2.0620 H   0  0  0  0  0  0  0  0  0  0  0  0
   -2.1958   -0.1160    2.6070 H   0  0  0  0  0  0  0  0  0  0  0  0
   -2.6055   -1.2356    3.9055 H   0  0  0  0  0  0  0  0  0  0  0  0
   -3.8867   -0.6130    2.8543 H   0  0  0  0  0  0  0  0  0  0  0  0
   -2.6890   -6.1080    0.8136 H   0  0  0  0  0  0  0  0  0  0  0  0
   -2.5597   -5.8064    2.5683 H   0  0  0  0  0  0  0  0  0  0  0  0
   -1.0840   -5.7274    1.5423 H   0  0  0  0  0  0  0  0  0  0  0  0
   -2.1258   -5.1262   -1.1162 H   0  0  0  0  0  0  0  0  0  0  0  0
   -1.9996   -3.5558   -1.8786 H   0  0  0  0  0  0  0  0  0  0  0  0
   -3.6035   -4.2393   -1.5305 H   0  0  0  0  0  0  0  0  0  0  0  0
   -2.8864    2.4858    1.5544 H   0  0  0  0  0  0  0  0  0  0  0  0
   -3.6545    4.7205    0.9270 H   0  0  0  0  0  0  0  0  0  0  0  0
  1  2  1  0
  2  3  1  0
  3  4  2  0
  4  5  1  0
  5  6  2  0
  6  7  1  0
  7  8  1  0
  8  9  1  0
  9 10  2  0
  9 11  1  0
 11 12  1  0
 12 13  1  0
 13 14  1  0
 14 15  1  0
 15 16  2  0
 15 17  1  0
 17 18  2  0
 18 19  1  0
 19 20  2  0
 20 21  1  0
 14 22  1  0
 22 23  1  0
  7 24  1  0
 24 25  2  0
 24 26  2  0
 24 27  1  0
 27 28  1  0
 28 29  1  0
 28 30  2  0
 30 31  1  0
 31 32  1  0
 31 33  1  0
 33 34  1  0
  6 35  1  0
 35 36  2  0
 36  3  1  0
 23 11  1  0
 33 27  2  0
 21 17  1  0
  1 37  1  0
  1 38  1  0
  1 39  1  0
  4 40  1  0
  5 41  1  0
  8 42  1  0
  8 43  1  0
 12 44  1  0
 12 45  1  0
 13 46  1  0
 13 47  1  0
 18 48  1  0
 19 49  1  0
 20 50  1  0
 22 51  1  0
 22 52  1  0
 23 53  1  0
 23 54  1  0
 29 55  1  0
 29 56  1  0
 29 57  1  0
 32 58  1  0
 32 59  1  0
 32 60  1  0
 34 61  1  0
 34 62  1  0
 34 63  1  0
 35 64  1  0
 36 65  1  0
M  END
$$$$
