
     RDKit          3D

 65 69  0  0  0  0  0  0  0  0999 V2000
   -5.7007    2.8713    2.0453 C   0  0  0  0  0  0  0  0  0  0  0  0
   -4.7623    1.9653    2.6152 O   0  0  0  0  0  0  0  0  0  0  0  0
   -4.1767    1.1041    1.6334 C   0  0  0  0  0  0  0  0  0  0  0  0
   -2.9756    1.7636    0.9405 C   0  0  0  0  0  0  0  0  0  0  0  0
   -2.4923    1.0323   -0.2334 N   0  0  0  0  0  0  0  0  0  0  0  0
   -3.2059    1.1723   -1.4213 C   0  0  0  0  0  0  0  0  0  0  0  0
   -4.2255    1.8535   -1.5057 O   0  0  0  0  0  0  0  0  0  0  0  0
   -2.7084    0.4459   -2.6208 C   0  0  0  0  0  0  0  0  0  0  0  0
   -3.4809    0.4638   -3.7930 C   0  0  0  0  0  0  0  0  0  0  0  0
   -3.0475   -0.2110   -4.9352 C   0  0  0  0  0  0  0  0  0  0  0  0
   -1.8397   -0.9059   -4.9140 C   0  0  0  0  0  0  0  0  0  0  0  0
   -1.0630   -0.9238   -3.7539 C   0  0  0  0  0  0  0  0  0  0  0  0
   -1.4916   -0.2499   -2.5967 C   0  0  0  0  0  0  0  0  0  0  0  0
   -0.6205   -0.2439   -1.3600 C   0  0  0  0  0  0  0  0  0  0  0  0
    0.5088    0.7895   -1.4751 C   0  0  0  0  0  0  0  0  0  0  0  0
    0.3016    1.9014   -1.9692 O   0  0  0  0  0  0  0  0  0  0  0  0
    1.7550    0.4555   -0.9554 N   0  0  0  0  0  0  0  0  0  0  0  0
    2.8282    1.4535   -0.9813 C   0  0  0  0  0  0  0  0  0  0  0  0
    3.6435    1.4785    0.3282 C   0  0  0  0  0  0  0  0  0  0  0  0
    4.0085    0.1277    0.8088 N   0  0  0  0  0  0  0  0  0  0  0  0
    5.2909    0.0147    1.3662 C   0  0  0  0  0  0  0  0  0  0  0  0
    5.7295    0.9359    2.3202 C   0  0  0  0  0  0  0  0  0  0  0  0
    7.0046    0.8172    2.8741 C   0  0  0  0  0  0  0  0  0  0  0  0
    7.8228   -0.2277    2.4734 C   0  0  0  0  0  0  0  0  0  0  0  0
    7.3204   -1.1130    1.5403 C   0  0  0  0  0  0  0  0  0  0  0  0
    6.0858   -1.0151    0.9934 N   0  0  0  0  0  0  0  0  0  0  0  0
    3.6260   -0.9908   -0.0642 C   0  0  0  0  0  0  0  0  0  0  0  0
    2.1389   -0.8741   -0.4535 C   0  0  0  0  0  0  0  0  0  0  0  0
   -1.4104    0.0510   -0.0628 C   0  0  0  0  0  0  0  0  0  0  0  0
   -1.9010   -1.2405    0.5951 C   0  0  0  0  0  0  0  0  0  0  0  0
   -1.2805   -1.6908    1.7769 C   0  0  0  0  0  0  0  0  0  0  0  0
   -1.6939   -2.8732    2.3925 C   0  0  0  0  0  0  0  0  0  0  0  0
   -2.7250   -3.6150    1.8310 C   0  0  0  0  0  0  0  0  0  0  0  0
   -3.1163   -4.7526    2.4189 F   0  0  0  0  0  0  0  0  0  0  0  0
   -3.3545   -3.1930    0.6685 C   0  0  0  0  0  0  0  0  0  0  0  0
   -2.9467   -2.0081    0.0516 C   0  0  0  0  0  0  0  0  0  0  0  0
   -5.2076    3.5639    1.3564 H   0  0  0  0  0  0  0  0  0  0  0  0
   -6.1484    3.4520    2.8575 H   0  0  0  0  0  0  0  0  0  0  0  0
   -6.4997    2.3281    1.5294 H   0  0  0  0  0  0  0  0  0  0  0  0
   -3.8339    0.2148    2.1695 H   0  0  0  0  0  0  0  0  0  0  0  0
   -4.9361    0.7693    0.9178 H   0  0  0  0  0  0  0  0  0  0  0  0
   -2.1535    1.8962    1.6549 H   0  0  0  0  0  0  0  0  0  0  0  0
   -3.2435    2.7758    0.6133 H   0  0  0  0  0  0  0  0  0  0  0  0
   -4.4231    1.0122   -3.8214 H   0  0  0  0  0  0  0  0  0  0  0  0
   -3.6457   -0.1862   -5.8448 H   0  0  0  0  0  0  0  0  0  0  0  0
   -1.4963   -1.4234   -5.8063 H   0  0  0  0  0  0  0  0  0  0  0  0
   -0.1133   -1.4575   -3.7656 H   0  0  0  0  0  0  0  0  0  0  0  0
   -0.1861   -1.2460   -1.2871 H   0  0  0  0  0  0  0  0  0  0  0  0
    2.4341    2.4588   -1.1779 H   0  0  0  0  0  0  0  0  0  0  0  0
    3.4787    1.1952   -1.8278 H   0  0  0  0  0  0  0  0  0  0  0  0
    3.0415    1.9577    1.1104 H   0  0  0  0  0  0  0  0  0  0  0  0
    4.5271    2.1056    0.1533 H   0  0  0  0  0  0  0  0  0  0  0  0
    5.0808    1.7381    2.6558 H   0  0  0  0  0  0  0  0  0  0  0  0
    7.3459    1.5331    3.6157 H   0  0  0  0  0  0  0  0  0  0  0  0
    8.8205   -0.3524    2.8810 H   0  0  0  0  0  0  0  0  0  0  0  0
    7.9137   -1.9549    1.1901 H   0  0  0  0  0  0  0  0  0  0  0  0
    4.2428   -0.9916   -0.9727 H   0  0  0  0  0  0  0  0  0  0  0  0
    3.7657   -1.9553    0.4414 H   0  0  0  0  0  0  0  0  0  0  0  0
    1.5094   -1.0823    0.4192 H   0  0  0  0  0  0  0  0  0  0  0  0
    1.9122   -1.6178   -1.2245 H   0  0  0  0  0  0  0  0  0  0  0  0
   -0.7131    0.5181    0.6471 H   0  0  0  0  0  0  0  0  0  0  0  0
   -0.4712   -1.1225    2.2339 H   0  0  0  0  0  0  0  0  0  0  0  0
   -1.2183   -3.2199    3.3036 H   0  0  0  0  0  0  0  0  0  0  0  0
   -4.1631   -3.7852    0.2507 H   0  0  0  0  0  0  0  0  0  0  0  0
   -3.4653   -1.6924   -0.8506 H   0  0  0  0  0  0  0  0  0  0  0  0
  1  2  1  0
  2  3  1  0
  3  4  1  0
  4  5  1  0
  5  6  1  0
  6  7  2  0
  6  8  1  0
  8  9  2  0
  9 10  1  0
 10 11  2  0
 11 12  1  0
 12 13  2  0
 13 14  1  0
 14 15  1  0
 15 16  2  0
 15 17  1  0
 17 18  1  0
 18 19  1  0
 19 20  1  0
 20 21  1  0
 21 22  2  0
 22 23  1  0
 23 24  2  0
 24 25  1  0
 25 26  2  0
 20 27  1  0
 27 28  1  0
 14 29  1  0
 29 30  1  0
 30 31  2  0
 31 32  1  0
 32 33  2  0
 33 34  1  0
 33 35  1  0
 35 36  2  0
 29  5  1  0
 36 30  1  0
 13  8  1  0
 28 17  1  0
 26 21  1  0
  1 37  1  0
  1 38  1  0
  1 39  1  0
  3 40  1  0
  3 41  1  0
  4 42  1  0
  4 43  1  0
  9 44  1  0
 10 45  1  0
 11 46  1  0
 12 47  1  0
 14 48  1  0
 18 49  1  0
 18 50  1  0
 19 51  1  0
 19 52  1  0
 22 53  1  0
 23 54  1  0
 24 55  1  0
 25 56  1  0
 27 57  1  0
 27 58  1  0
 28 59  1  0
 28 60  1  0
 29 61  1  0
 31 62  1  0
 32 63  1  0
 35 64  1  0
 36 65  1  0
M  END
$$$$
