
     RDKit          3D

 49 52  0  0  0  0  0  0  0  0999 V2000
   -7.0917   -0.2225    0.7664 C   0  0  0  0  0  0  0  0  0  0  0  0
   -5.8011   -0.7768    1.1118 N   0  0  0  0  0  0  0  0  0  0  0  0
   -5.7816   -1.7442    2.0505 N   0  0  0  0  0  0  0  0  0  0  0  0
   -4.5311   -2.2001    2.0190 C   0  0  0  0  0  0  0  0  0  0  0  0
   -3.7083   -1.4907    1.1154 C   0  0  0  0  0  0  0  0  0  0  0  0
   -2.2783   -1.7197    0.9565 C   0  0  0  0  0  0  0  0  0  0  0  0
   -1.8295   -2.8582    0.9993 O   0  0  0  0  0  0  0  0  0  0  0  0
   -1.5384   -0.5581    0.8454 N   0  0  0  0  0  0  0  0  0  0  0  0
   -0.1495   -0.4338    0.6449 C   0  0  0  0  0  0  0  0  0  0  0  0
    0.7170   -1.5147    0.4732 C   0  0  0  0  0  0  0  0  0  0  0  0
    2.0856   -1.3021    0.2662 C   0  0  0  0  0  0  0  0  0  0  0  0
    2.6024   -0.0063    0.2523 C   0  0  0  0  0  0  0  0  0  0  0  0
    3.9910    0.2577   -0.0111 N   0  0  0  0  0  0  0  0  0  0  0  0
    4.9813   -0.5334    0.7502 C   0  0  0  0  0  0  0  0  0  0  0  0
    6.2682    0.2841    0.8948 C   0  0  0  0  0  0  0  0  0  0  0  0
    6.5261    1.2767   -0.2456 C   0  0  0  0  0  0  0  0  0  0  0  0
    6.1178    0.7309   -1.6039 C   0  0  0  0  0  0  0  0  0  0  0  0
    4.3604    0.3847   -1.6822 S   0  0  0  0  0  6  0  0  0  0  0  0
    3.6816    1.5489   -2.2114 O   0  0  0  0  0  0  0  0  0  0  0  0
    4.1992   -0.9238   -2.2832 O   0  0  0  0  0  0  0  0  0  0  0  0
    1.7383    1.0778    0.3899 C   0  0  0  0  0  0  0  0  0  0  0  0
    0.3716    0.8654    0.5923 C   0  0  0  0  0  0  0  0  0  0  0  0
   -4.5749   -0.5815    0.5165 C   0  0  0  0  0  0  0  0  0  0  0  0
   -4.3277    0.3183   -0.5241 N   0  0  0  0  0  0  0  0  0  0  0  0
   -4.9584    1.5270   -0.7527 C   0  0  0  0  0  0  0  0  0  0  0  0
   -4.4110    2.1317   -1.8631 C   0  0  0  0  0  0  0  0  0  0  0  0
   -3.4066    1.2744   -2.3485 C   0  0  0  0  0  0  0  0  0  0  0  0
   -3.3771    0.1770   -1.5176 C   0  0  0  0  0  0  0  0  0  0  0  0
   -7.1899    0.7479    1.2575 H   0  0  0  0  0  0  0  0  0  0  0  0
   -7.8796   -0.8933    1.1219 H   0  0  0  0  0  0  0  0  0  0  0  0
   -7.1713   -0.1355   -0.3192 H   0  0  0  0  0  0  0  0  0  0  0  0
   -4.2487   -3.0130    2.6777 H   0  0  0  0  0  0  0  0  0  0  0  0
   -2.0512    0.3108    0.9222 H   0  0  0  0  0  0  0  0  0  0  0  0
    0.3615   -2.5404    0.4742 H   0  0  0  0  0  0  0  0  0  0  0  0
    2.7301   -2.1603    0.0980 H   0  0  0  0  0  0  0  0  0  0  0  0
    4.6045   -0.7828    1.7493 H   0  0  0  0  0  0  0  0  0  0  0  0
    5.1849   -1.4834    0.2412 H   0  0  0  0  0  0  0  0  0  0  0  0
    6.2377    0.8476    1.8359 H   0  0  0  0  0  0  0  0  0  0  0  0
    7.1141   -0.4084    0.9844 H   0  0  0  0  0  0  0  0  0  0  0  0
    5.9717    2.2027   -0.0461 H   0  0  0  0  0  0  0  0  0  0  0  0
    7.5885    1.5456   -0.2548 H   0  0  0  0  0  0  0  0  0  0  0  0
    6.3432    1.4491   -2.3978 H   0  0  0  0  0  0  0  0  0  0  0  0
    6.6481   -0.2034   -1.8146 H   0  0  0  0  0  0  0  0  0  0  0  0
    2.1240    2.0924    0.3312 H   0  0  0  0  0  0  0  0  0  0  0  0
   -0.2760    1.7324    0.6953 H   0  0  0  0  0  0  0  0  0  0  0  0
   -5.7196    1.9004   -0.0845 H   0  0  0  0  0  0  0  0  0  0  0  0
   -4.7017    3.0921   -2.2702 H   0  0  0  0  0  0  0  0  0  0  0  0
   -2.7748    1.4275   -3.2148 H   0  0  0  0  0  0  0  0  0  0  0  0
   -2.7708   -0.7166   -1.5879 H   0  0  0  0  0  0  0  0  0  0  0  0
  1  2  1  0
  2  3  1  0
  3  4  2  0
  4  5  1  0
  5  6  1  0
  6  7  2  0
  6  8  1  0
  8  9  1  0
  9 10  2  0
 10 11  1  0
 11 12  2  0
 12 13  1  0
 13 14  1  0
 14 15  1  0
 15 16  1  0
 16 17  1  0
 17 18  1  0
 18 19  2  0
 18 20  2  0
 12 21  1  0
 21 22  2  0
  5 23  2  0
 23 24  1  0
 24 25  1  0
 25 26  2  0
 26 27  1  0
 27 28  2  0
 23  2  1  0
 28 24  1  0
 22  9  1  0
 18 13  1  0
  1 29  1  0
  1 30  1  0
  1 31  1  0
  4 32  1  0
  8 33  1  0
 10 34  1  0
 11 35  1  0
 14 36  1  0
 14 37  1  0
 15 38  1  0
 15 39  1  0
 16 40  1  0
 16 41  1  0
 17 42  1  0
 17 43  1  0
 21 44  1  0
 22 45  1  0
 25 46  1  0
 26 47  1  0
 27 48  1  0
 28 49  1  0
M  END
$$$$
