
     RDKit          3D

 25 27  0  0  0  0  0  0  0  0999 V2000
   -0.6923    2.1587   -0.3426 O   0  0  0  0  0  0  0  0  0  0  0  0
   -0.8130    0.9808   -0.0566 C   0  0  0  0  0  0  0  0  0  0  0  0
   -2.1138    0.4533    0.3142 C   0  0  0  0  0  0  0  0  0  0  0  0
   -3.3540    1.0476    0.4232 C   0  0  0  0  0  0  0  0  0  0  0  0
   -4.4131    0.2251    0.8127 C   0  0  0  0  0  0  0  0  0  0  0  0
   -4.1667   -1.1298    1.0667 C   0  0  0  0  0  0  0  0  0  0  0  0
   -2.9491   -1.7149    0.9600 N   0  0  0  0  0  0  0  0  0  0  0  0
   -1.9652   -0.8774    0.5818 C   0  0  0  0  0  0  0  0  0  0  0  0
   -0.5549   -1.2262    0.3850 C   0  0  0  0  0  0  0  0  0  0  0  0
   -0.1324   -2.3567    0.5547 O   0  0  0  0  0  0  0  0  0  0  0  0
    0.0926   -0.0617   -0.0006 N   0  0  0  0  0  0  0  0  0  0  0  0
    1.4903    0.0469   -0.2969 C   0  0  0  0  0  0  0  0  0  0  0  0
    2.0696    1.2695   -0.6821 C   0  0  0  0  0  0  0  0  0  0  0  0
    3.4374    1.3806   -0.9732 C   0  0  0  0  0  0  0  0  0  0  0  0
    4.2587    0.2657   -0.8846 C   0  0  0  0  0  0  0  0  0  0  0  0
    5.9346    0.3983   -1.2404 Cl  0  0  0  0  0  0  0  0  0  0  0  0
    3.7208   -0.9564   -0.5074 C   0  0  0  0  0  0  0  0  0  0  0  0
    2.3522   -1.0615   -0.2176 C   0  0  0  0  0  0  0  0  0  0  0  0
   -3.4953    2.1031    0.2155 H   0  0  0  0  0  0  0  0  0  0  0  0
   -5.4172    0.6257    0.9189 H   0  0  0  0  0  0  0  0  0  0  0  0
   -4.9731   -1.7936    1.3716 H   0  0  0  0  0  0  0  0  0  0  0  0
    1.4865    2.1812   -0.7719 H   0  0  0  0  0  0  0  0  0  0  0  0
    3.8455    2.3444   -1.2675 H   0  0  0  0  0  0  0  0  0  0  0  0
    4.3521   -1.8385   -0.4337 H   0  0  0  0  0  0  0  0  0  0  0  0
    1.9998   -2.0476    0.0708 H   0  0  0  0  0  0  0  0  0  0  0  0
  1  2  2  0
  2  3  1  0
  3  4  2  0
  4  5  1  0
  5  6  2  0
  6  7  1  0
  7  8  2  0
  8  9  1  0
  9 10  2  0
  9 11  1  0
 11 12  1  0
 12 13  2  0
 13 14  1  0
 14 15  2  0
 15 16  1  0
 15 17  1  0
 17 18  2  0
 11  2  1  0
 18 12  1  0
  8  3  1  0
  4 19  1  0
  5 20  1  0
  6 21  1  0
 13 22  1  0
 14 23  1  0
 17 24  1  0
 18 25  1  0
M  END
$$$$
