
     RDKit          3D

 56 60  0  0  0  0  0  0  0  0999 V2000
    8.5331    2.4260    0.6442 C   0  0  0  0  0  0  0  0  0  0  0  0
    7.2705    2.4679    1.2962 O   0  0  0  0  0  0  0  0  0  0  0  0
    6.3043    1.6223    0.8298 C   0  0  0  0  0  0  0  0  0  0  0  0
    6.4333    0.7279   -0.2273 C   0  0  0  0  0  0  0  0  0  0  0  0
    5.3522   -0.0855   -0.6022 C   0  0  0  0  0  0  0  0  0  0  0  0
    4.1190   -0.0253    0.0673 C   0  0  0  0  0  0  0  0  0  0  0  0
    3.0354   -0.8575   -0.3308 N   0  0  0  0  0  0  0  0  0  0  0  0
    3.1519   -1.8028   -1.4291 C   0  0  0  0  0  0  0  0  0  0  0  0
    1.8037   -2.4343   -1.4908 C   0  0  0  0  0  0  0  0  0  0  0  0
    1.3446   -3.4203   -2.3517 C   0  0  0  0  0  0  0  0  0  0  0  0
    0.0322   -3.8759   -2.1994 C   0  0  0  0  0  0  0  0  0  0  0  0
   -0.7990   -3.3404   -1.2019 C   0  0  0  0  0  0  0  0  0  0  0  0
   -0.3295   -2.3276   -0.3526 C   0  0  0  0  0  0  0  0  0  0  0  0
   -1.2291   -1.8216    0.6946 C   0  0  0  0  0  0  0  0  0  0  0  0
   -1.5975   -2.6276    1.5462 O   0  0  0  0  0  0  0  0  0  0  0  0
   -1.6659   -0.5076    0.6345 N   0  0  0  0  0  0  0  0  0  0  0  0
   -1.5775    0.3728   -0.5301 C   0  0  0  0  0  0  0  0  0  0  0  0
   -2.9638    0.5475   -1.1662 C   0  0  0  0  0  0  0  0  0  0  0  0
   -4.0153    0.8990   -0.1984 N   0  0  0  0  0  0  0  0  0  0  0  0
   -5.1299    1.5923   -0.6999 C   0  0  0  0  0  0  0  0  0  0  0  0
   -5.0430    2.1912   -1.7756 O   0  0  0  0  0  0  0  0  0  0  0  0
   -6.3799    1.6167    0.0464 C   0  0  0  0  0  0  0  0  0  0  0  0
   -7.4291    2.5189   -0.0219 C   0  0  0  0  0  0  0  0  0  0  0  0
   -8.4330    2.0590    0.8624 C   0  0  0  0  0  0  0  0  0  0  0  0
   -7.9541    0.8906    1.4025 C   0  0  0  0  0  0  0  0  0  0  0  0
   -6.7232    0.6068    0.9069 O   0  0  0  0  0  0  0  0  0  0  0  0
   -4.0005    0.1526    1.0751 C   0  0  0  0  0  0  0  0  0  0  0  0
   -2.5878   -0.0208    1.6531 C   0  0  0  0  0  0  0  0  0  0  0  0
    0.9778   -1.8992   -0.5034 C   0  0  0  0  0  0  0  0  0  0  0  0
    1.7566   -0.8975    0.2419 C   0  0  0  0  0  0  0  0  0  0  0  0
    1.2928   -0.2540    1.1634 O   0  0  0  0  0  0  0  0  0  0  0  0
    4.0089    0.8789    1.1282 C   0  0  0  0  0  0  0  0  0  0  0  0
    5.0874    1.6914    1.5032 C   0  0  0  0  0  0  0  0  0  0  0  0
    9.1873    3.1530    1.1351 H   0  0  0  0  0  0  0  0  0  0  0  0
    8.4437    2.7158   -0.4080 H   0  0  0  0  0  0  0  0  0  0  0  0
    8.9969    1.4392    0.7447 H   0  0  0  0  0  0  0  0  0  0  0  0
    7.3591    0.6335   -0.7848 H   0  0  0  0  0  0  0  0  0  0  0  0
    5.5138   -0.7641   -1.4340 H   0  0  0  0  0  0  0  0  0  0  0  0
    3.3704   -1.2681   -2.3590 H   0  0  0  0  0  0  0  0  0  0  0  0
    3.9189   -2.5487   -1.1973 H   0  0  0  0  0  0  0  0  0  0  0  0
    1.9869   -3.8432   -3.1191 H   0  0  0  0  0  0  0  0  0  0  0  0
   -0.3487   -4.6610   -2.8502 H   0  0  0  0  0  0  0  0  0  0  0  0
   -1.8119   -3.7211   -1.0813 H   0  0  0  0  0  0  0  0  0  0  0  0
   -1.1994    1.3402   -0.1793 H   0  0  0  0  0  0  0  0  0  0  0  0
   -0.8804   -0.0061   -1.2799 H   0  0  0  0  0  0  0  0  0  0  0  0
   -2.9010    1.2956   -1.9630 H   0  0  0  0  0  0  0  0  0  0  0  0
   -3.2779   -0.3965   -1.6294 H   0  0  0  0  0  0  0  0  0  0  0  0
   -7.4510    3.4016   -0.6471 H   0  0  0  0  0  0  0  0  0  0  0  0
   -9.3906    2.5151    1.0702 H   0  0  0  0  0  0  0  0  0  0  0  0
   -8.3495    0.1753    2.1106 H   0  0  0  0  0  0  0  0  0  0  0  0
   -4.4491   -0.8276    0.8757 H   0  0  0  0  0  0  0  0  0  0  0  0
   -4.6024    0.6750    1.8228 H   0  0  0  0  0  0  0  0  0  0  0  0
   -2.2053    0.9482    1.9964 H   0  0  0  0  0  0  0  0  0  0  0  0
   -2.6152   -0.6877    2.5208 H   0  0  0  0  0  0  0  0  0  0  0  0
    3.0917    0.9838    1.6993 H   0  0  0  0  0  0  0  0  0  0  0  0
    4.9682    2.3836    2.3337 H   0  0  0  0  0  0  0  0  0  0  0  0
  1  2  1  0
  2  3  1  0
  3  4  2  0
  4  5  1  0
  5  6  2  0
  6  7  1  0
  7  8  1  0
  8  9  1  0
  9 10  2  0
 10 11  1  0
 11 12  2  0
 12 13  1  0
 13 14  1  0
 14 15  2  0
 14 16  1  0
 16 17  1  0
 17 18  1  0
 18 19  1  0
 19 20  1  0
 20 21  2  0
 20 22  1  0
 22 23  2  0
 23 24  1  0
 24 25  2  0
 25 26  1  0
 19 27  1  0
 27 28  1  0
 13 29  2  0
 29 30  1  0
 30 31  2  0
  6 32  1  0
 32 33  2  0
 33  3  1  0
 30  7  1  0
 29  9  1  0
 28 16  1  0
 26 22  1  0
  1 34  1  0
  1 35  1  0
  1 36  1  0
  4 37  1  0
  5 38  1  0
  8 39  1  0
  8 40  1  0
 10 41  1  0
 11 42  1  0
 12 43  1  0
 17 44  1  0
 17 45  1  0
 18 46  1  0
 18 47  1  0
 23 48  1  0
 24 49  1  0
 25 50  1  0
 27 51  1  0
 27 52  1  0
 28 53  1  0
 28 54  1  0
 32 55  1  0
 33 56  1  0
M  END
$$$$
