
     RDKit          3D

 37 38  0  0  0  0  0  0  0  0999 V2000
    7.0588   -0.5896    0.1887 C   0  0  0  0  0  0  0  0  0  0  0  0
    6.2139   -1.7318    0.2481 O   0  0  0  0  0  0  0  0  0  0  0  0
    4.9155   -1.4435    0.7660 C   0  0  0  0  0  0  0  0  0  0  0  0
    4.0201   -0.7442   -0.2584 C   0  0  0  0  0  0  0  0  0  0  0  0
    2.6383   -0.6612    0.1836 N   0  0  0  0  0  0  0  0  0  0  0  0
    1.8059    0.3371   -0.2784 C   0  0  0  0  0  0  0  0  0  0  0  0
    2.1905    1.2872   -0.9503 O   0  0  0  0  0  0  0  0  0  0  0  0
    0.3725    0.1690    0.1756 C   0  0  0  0  0  0  0  0  0  0  0  0
   -0.5473    1.1745   -0.5106 C   0  0  0  0  0  0  0  0  0  0  0  0
   -1.9526    1.0540    0.0075 C   0  0  0  0  0  0  0  0  0  0  0  0
   -2.7636    0.2028   -0.6725 N   0  0  0  0  0  0  0  0  0  0  0  0
   -4.0092    0.0252   -0.1901 C   0  0  0  0  0  0  0  0  0  0  0  0
   -4.8878   -0.8254   -0.8504 C   0  0  0  0  0  0  0  0  0  0  0  0
   -6.1844   -1.0391   -0.3800 C   0  0  0  0  0  0  0  0  0  0  0  0
   -6.6102   -0.3914    0.7723 C   0  0  0  0  0  0  0  0  0  0  0  0
   -5.7360    0.4648    1.4435 C   0  0  0  0  0  0  0  0  0  0  0  0
   -4.4433    0.6861    0.9838 C   0  0  0  0  0  0  0  0  0  0  0  0
   -3.6325    1.5194    1.6600 N   0  0  0  0  0  0  0  0  0  0  0  0
   -2.3979    1.7001    1.1589 C   0  0  0  0  0  0  0  0  0  0  0  0
   -1.6257    2.5449    1.8980 O   0  0  0  0  0  0  0  0  0  0  0  0
    6.6817    0.1378   -0.5349 H   0  0  0  0  0  0  0  0  0  0  0  0
    8.0497   -0.9156   -0.1391 H   0  0  0  0  0  0  0  0  0  0  0  0
    7.1546   -0.1280    1.1761 H   0  0  0  0  0  0  0  0  0  0  0  0
    4.9908   -0.8615    1.6925 H   0  0  0  0  0  0  0  0  0  0  0  0
    4.4673   -2.4064    1.0367 H   0  0  0  0  0  0  0  0  0  0  0  0
    4.0302   -1.2917   -1.2078 H   0  0  0  0  0  0  0  0  0  0  0  0
    4.3976    0.2611   -0.4726 H   0  0  0  0  0  0  0  0  0  0  0  0
    2.2024   -1.5158    0.5091 H   0  0  0  0  0  0  0  0  0  0  0  0
    0.3484    0.3016    1.2641 H   0  0  0  0  0  0  0  0  0  0  0  0
    0.0452   -0.8539   -0.0469 H   0  0  0  0  0  0  0  0  0  0  0  0
   -0.5493    0.9878   -1.5927 H   0  0  0  0  0  0  0  0  0  0  0  0
   -0.1808    2.2004   -0.3953 H   0  0  0  0  0  0  0  0  0  0  0  0
   -4.5528   -1.3315   -1.7525 H   0  0  0  0  0  0  0  0  0  0  0  0
   -6.8545   -1.7083   -0.9137 H   0  0  0  0  0  0  0  0  0  0  0  0
   -7.6171   -0.5476    1.1511 H   0  0  0  0  0  0  0  0  0  0  0  0
   -6.0666    0.9738    2.3459 H   0  0  0  0  0  0  0  0  0  0  0  0
   -0.9719    2.9588    1.3171 H   0  0  0  0  0  0  0  0  0  0  0  0
  1  2  1  0
  2  3  1  0
  3  4  1  0
  4  5  1  0
  5  6  1  0
  6  7  2  0
  6  8  1  0
  8  9  1  0
  9 10  1  0
 10 11  2  0
 11 12  1  0
 12 13  2  0
 13 14  1  0
 14 15  2  0
 15 16  1  0
 16 17  2  0
 17 18  1  0
 18 19  2  0
 19 20  1  0
 19 10  1  0
 17 12  1  0
  1 21  1  0
  1 22  1  0
  1 23  1  0
  3 24  1  0
  3 25  1  0
  4 26  1  0
  4 27  1  0
  5 28  1  0
  8 29  1  0
  8 30  1  0
  9 31  1  0
  9 32  1  0
 13 33  1  0
 14 34  1  0
 15 35  1  0
 16 36  1  0
 20 37  1  0
M  END
$$$$
