
     RDKit          3D

 61 64  0  0  0  0  0  0  0  0999 V2000
    2.7199   -1.7080   -1.1100 O   0  0  0  0  0  0  0  0  0  0  0  0
    2.3555   -0.8683   -0.2889 C   0  0  0  0  0  0  0  0  0  0  0  0
    0.8802   -0.5967   -0.0255 C   0  0  0  0  0  0  0  0  0  0  0  0
   -0.0225   -1.3024   -1.0383 C   0  0  0  0  0  0  0  0  0  0  0  0
   -1.5039   -1.0655   -0.7390 C   0  0  0  0  0  0  0  0  0  0  0  0
   -2.4064   -1.6538   -1.8133 C   0  0  0  0  0  0  0  0  0  0  0  0
   -1.9572   -2.3246   -2.7409 O   0  0  0  0  0  0  0  0  0  0  0  0
   -3.7601   -1.3887   -1.6975 N   0  0  0  0  0  0  0  0  0  0  0  0
   -4.6677   -1.8363   -2.7570 C   0  0  0  0  0  0  0  0  0  0  0  0
   -5.8777   -0.9057   -2.8709 C   0  0  0  0  0  0  0  0  0  0  0  0
   -6.6427   -0.7965   -1.6655 O   0  0  0  0  0  0  0  0  0  0  0  0
   -5.8913   -1.0310   -0.4595 C   0  0  0  0  0  0  0  0  0  0  0  0
   -6.5348   -0.2651    0.6786 C   0  0  0  0  0  0  0  0  0  0  0  0
   -6.6892   -0.8681    1.9358 C   0  0  0  0  0  0  0  0  0  0  0  0
   -7.2575   -0.1620    2.9970 C   0  0  0  0  0  0  0  0  0  0  0  0
   -7.6742    1.1567    2.8156 C   0  0  0  0  0  0  0  0  0  0  0  0
   -7.5243    1.7689    1.5733 C   0  0  0  0  0  0  0  0  0  0  0  0
   -6.9581    1.0631    0.5110 C   0  0  0  0  0  0  0  0  0  0  0  0
   -4.3965   -0.6574   -0.5953 C   0  0  0  0  0  0  0  0  0  0  0  0
    3.2626   -0.1325    0.4562 N   0  0  0  0  0  0  0  0  0  0  0  0
    2.9096    0.9053    1.4268 C   0  0  0  0  0  0  0  0  0  0  0  0
    4.1115    1.2983    2.2880 C   0  0  0  0  0  0  0  0  0  0  0  0
    5.2147    1.7778    1.5131 O   0  0  0  0  0  0  0  0  0  0  0  0
    5.4421    1.0481    0.2874 C   0  0  0  0  0  0  0  0  0  0  0  0
    6.9317    0.8555    0.0886 C   0  0  0  0  0  0  0  0  0  0  0  0
    7.4897    0.9845   -1.1921 C   0  0  0  0  0  0  0  0  0  0  0  0
    8.8552    0.7748   -1.3994 C   0  0  0  0  0  0  0  0  0  0  0  0
    9.6783    0.4292   -0.3303 C   0  0  0  0  0  0  0  0  0  0  0  0
    9.1373    0.2919    0.9479 C   0  0  0  0  0  0  0  0  0  0  0  0
    7.7725    0.5028    1.1563 C   0  0  0  0  0  0  0  0  0  0  0  0
    4.7013   -0.3047    0.2189 C   0  0  0  0  0  0  0  0  0  0  0  0
    0.7004    0.4827   -0.0770 H   0  0  0  0  0  0  0  0  0  0  0  0
    0.6431   -0.9476    0.9853 H   0  0  0  0  0  0  0  0  0  0  0  0
    0.1809   -2.3810   -1.0368 H   0  0  0  0  0  0  0  0  0  0  0  0
    0.2176   -0.9456   -2.0486 H   0  0  0  0  0  0  0  0  0  0  0  0
   -1.6974    0.0106   -0.6757 H   0  0  0  0  0  0  0  0  0  0  0  0
   -1.7534   -1.5306    0.2202 H   0  0  0  0  0  0  0  0  0  0  0  0
   -4.9889   -2.8504   -2.4860 H   0  0  0  0  0  0  0  0  0  0  0  0
   -4.1390   -1.8895   -3.7140 H   0  0  0  0  0  0  0  0  0  0  0  0
   -6.5538   -1.2607   -3.6553 H   0  0  0  0  0  0  0  0  0  0  0  0
   -5.5554    0.1055   -3.1482 H   0  0  0  0  0  0  0  0  0  0  0  0
   -5.9781   -2.1073   -0.2599 H   0  0  0  0  0  0  0  0  0  0  0  0
   -6.3736   -1.8976    2.0996 H   0  0  0  0  0  0  0  0  0  0  0  0
   -7.3804   -0.6436    3.9651 H   0  0  0  0  0  0  0  0  0  0  0  0
   -8.1202    1.7030    3.6415 H   0  0  0  0  0  0  0  0  0  0  0  0
   -7.8578    2.7943    1.4243 H   0  0  0  0  0  0  0  0  0  0  0  0
   -6.8605    1.5499   -0.4578 H   0  0  0  0  0  0  0  0  0  0  0  0
   -3.8629   -0.8493    0.3416 H   0  0  0  0  0  0  0  0  0  0  0  0
   -4.2856    0.4093   -0.8336 H   0  0  0  0  0  0  0  0  0  0  0  0
    2.5640    1.7704    0.8499 H   0  0  0  0  0  0  0  0  0  0  0  0
    2.0874    0.5554    2.0564 H   0  0  0  0  0  0  0  0  0  0  0  0
    3.8298    2.0919    2.9874 H   0  0  0  0  0  0  0  0  0  0  0  0
    4.4579    0.4467    2.8856 H   0  0  0  0  0  0  0  0  0  0  0  0
    5.0595    1.6987   -0.5080 H   0  0  0  0  0  0  0  0  0  0  0  0
    6.8640    1.2464   -2.0419 H   0  0  0  0  0  0  0  0  0  0  0  0
    9.2749    0.8782   -2.3974 H   0  0  0  0  0  0  0  0  0  0  0  0
   10.7413    0.2645   -0.4917 H   0  0  0  0  0  0  0  0  0  0  0  0
    9.7784    0.0212    1.7838 H   0  0  0  0  0  0  0  0  0  0  0  0
    7.3669    0.3956    2.1604 H   0  0  0  0  0  0  0  0  0  0  0  0
    5.0612   -0.9816    1.0025 H   0  0  0  0  0  0  0  0  0  0  0  0
    4.8816   -0.7961   -0.7432 H   0  0  0  0  0  0  0  0  0  0  0  0
  1  2  2  0
  2  3  1  0
  3  4  1  0
  4  5  1  0
  5  6  1  0
  6  7  2  0
  6  8  1  0
  8  9  1  0
  9 10  1  0
 10 11  1  0
 11 12  1  0
 12 13  1  0
 13 14  2  0
 14 15  1  0
 15 16  2  0
 16 17  1  0
 17 18  2  0
 12 19  1  0
  2 20  1  0
 20 21  1  0
 21 22  1  0
 22 23  1  0
 23 24  1  0
 24 25  1  0
 25 26  2  0
 26 27  1  0
 27 28  2  0
 28 29  1  0
 29 30  2  0
 24 31  1  0
 19  8  1  0
 31 20  1  0
 18 13  1  0
 30 25  1  0
  3 32  1  0
  3 33  1  0
  4 34  1  0
  4 35  1  0
  5 36  1  0
  5 37  1  0
  9 38  1  0
  9 39  1  0
 10 40  1  0
 10 41  1  0
 12 42  1  0
 14 43  1  0
 15 44  1  0
 16 45  1  0
 17 46  1  0
 18 47  1  0
 19 48  1  0
 19 49  1  0
 21 50  1  0
 21 51  1  0
 22 52  1  0
 22 53  1  0
 24 54  1  0
 26 55  1  0
 27 56  1  0
 28 57  1  0
 29 58  1  0
 30 59  1  0
 31 60  1  0
 31 61  1  0
M  END
$$$$
