
     RDKit          3D

 54 57  0  0  0  0  0  0  0  0999 V2000
   -7.2400   -1.5037   -1.7573 C   0  0  0  0  0  0  0  0  0  0  0  0
   -6.6628   -0.0955   -1.7331 C   0  0  0  0  0  0  0  0  0  0  0  0
   -5.4059   -0.0250   -0.9902 N   0  0  0  0  0  0  0  0  0  0  0  0
   -4.2338   -0.2031   -1.7116 C   0  0  0  0  0  0  0  0  0  0  0  0
   -4.1852   -0.4141   -2.9230 O   0  0  0  0  0  0  0  0  0  0  0  0
   -2.9546   -0.1281   -0.9765 C   0  0  0  0  0  0  0  0  0  0  0  0
   -2.8976    0.0684    0.3464 C   0  0  0  0  0  0  0  0  0  0  0  0
   -1.7521    0.1526    1.1072 O   0  0  0  0  0  0  0  0  0  0  0  0
   -0.4924    0.0227    0.4595 C   0  0  0  0  0  0  0  0  0  0  0  0
    0.6600    0.1488    1.4657 C   0  0  0  0  0  0  0  0  0  0  0  0
    0.4527    0.3115    2.6700 O   0  0  0  0  0  0  0  0  0  0  0  0
    1.9564    0.0948    0.9484 N   0  0  0  0  0  0  0  0  0  0  0  0
    2.2760   -0.4269   -0.3888 C   0  0  0  0  0  0  0  0  0  0  0  0
    3.6140    0.1031   -0.9402 C   0  0  0  0  0  0  0  0  0  0  0  0
    4.6973   -0.0825    0.0522 N   0  0  0  0  0  0  0  0  0  0  0  0
    5.9902    0.0702   -0.4848 C   0  0  0  0  0  0  0  0  0  0  0  0
    6.9067    1.0218   -0.0073 C   0  0  0  0  0  0  0  0  0  0  0  0
    8.1918    1.1455   -0.5549 C   0  0  0  0  0  0  0  0  0  0  0  0
    8.5996    0.3116   -1.5917 C   0  0  0  0  0  0  0  0  0  0  0  0
    7.7226   -0.6500   -2.0786 C   0  0  0  0  0  0  0  0  0  0  0  0
    6.4452   -0.7654   -1.5286 C   0  0  0  0  0  0  0  0  0  0  0  0
    5.6492   -1.7339   -2.0132 F   0  0  0  0  0  0  0  0  0  0  0  0
    4.3907    0.5547    1.3492 C   0  0  0  0  0  0  0  0  0  0  0  0
    3.0619    0.0218    1.9126 C   0  0  0  0  0  0  0  0  0  0  0  0
   -4.1551    0.2076    1.1036 C   0  0  0  0  0  0  0  0  0  0  0  0
   -4.1342    0.3897    2.4992 C   0  0  0  0  0  0  0  0  0  0  0  0
   -5.3168    0.5142    3.2252 C   0  0  0  0  0  0  0  0  0  0  0  0
   -6.5364    0.4558    2.5652 C   0  0  0  0  0  0  0  0  0  0  0  0
   -6.5741    0.2767    1.1797 C   0  0  0  0  0  0  0  0  0  0  0  0
   -5.3914    0.1544    0.4299 C   0  0  0  0  0  0  0  0  0  0  0  0
   -8.1673   -1.5230   -2.3381 H   0  0  0  0  0  0  0  0  0  0  0  0
   -7.4626   -1.8644   -0.7484 H   0  0  0  0  0  0  0  0  0  0  0  0
   -6.5366   -2.2078   -2.2140 H   0  0  0  0  0  0  0  0  0  0  0  0
   -7.3835    0.6270   -1.3375 H   0  0  0  0  0  0  0  0  0  0  0  0
   -6.4852    0.2200   -2.7687 H   0  0  0  0  0  0  0  0  0  0  0  0
   -2.0815   -0.2465   -1.6026 H   0  0  0  0  0  0  0  0  0  0  0  0
   -0.4252   -0.9664   -0.0073 H   0  0  0  0  0  0  0  0  0  0  0  0
   -0.3798    0.8232   -0.2804 H   0  0  0  0  0  0  0  0  0  0  0  0
    1.4808   -0.1814   -1.0972 H   0  0  0  0  0  0  0  0  0  0  0  0
    2.3127   -1.5197   -0.3000 H   0  0  0  0  0  0  0  0  0  0  0  0
    3.5147    1.1734   -1.1653 H   0  0  0  0  0  0  0  0  0  0  0  0
    3.8116   -0.4111   -1.8859 H   0  0  0  0  0  0  0  0  0  0  0  0
    6.6400    1.7052    0.7933 H   0  0  0  0  0  0  0  0  0  0  0  0
    8.8732    1.8982   -0.1649 H   0  0  0  0  0  0  0  0  0  0  0  0
    9.5970    0.4069   -2.0123 H   0  0  0  0  0  0  0  0  0  0  0  0
    8.0212   -1.3212   -2.8772 H   0  0  0  0  0  0  0  0  0  0  0  0
    5.1780    0.3415    2.0822 H   0  0  0  0  0  0  0  0  0  0  0  0
    4.3163    1.6425    1.2223 H   0  0  0  0  0  0  0  0  0  0  0  0
    3.1695   -1.0345    2.1899 H   0  0  0  0  0  0  0  0  0  0  0  0
    2.8107    0.5760    2.8234 H   0  0  0  0  0  0  0  0  0  0  0  0
   -3.1880    0.4344    3.0369 H   0  0  0  0  0  0  0  0  0  0  0  0
   -5.2805    0.6530    4.3026 H   0  0  0  0  0  0  0  0  0  0  0  0
   -7.4629    0.5476    3.1267 H   0  0  0  0  0  0  0  0  0  0  0  0
   -7.5544    0.2293    0.7179 H   0  0  0  0  0  0  0  0  0  0  0  0
  1  2  1  0
  2  3  1  0
  3  4  1  0
  4  5  2  0
  4  6  1  0
  6  7  2  0
  7  8  1  0
  8  9  1  0
  9 10  1  0
 10 11  2  0
 10 12  1  0
 12 13  1  0
 13 14  1  0
 14 15  1  0
 15 16  1  0
 16 17  2  0
 17 18  1  0
 18 19  2  0
 19 20  1  0
 20 21  2  0
 21 22  1  0
 15 23  1  0
 23 24  1  0
  7 25  1  0
 25 26  2  0
 26 27  1  0
 27 28  2  0
 28 29  1  0
 29 30  2  0
 30  3  1  0
 24 12  1  0
 30 25  1  0
 21 16  1  0
  1 31  1  0
  1 32  1  0
  1 33  1  0
  2 34  1  0
  2 35  1  0
  6 36  1  0
  9 37  1  0
  9 38  1  0
 13 39  1  0
 13 40  1  0
 14 41  1  0
 14 42  1  0
 17 43  1  0
 18 44  1  0
 19 45  1  0
 20 46  1  0
 23 47  1  0
 23 48  1  0
 24 49  1  0
 24 50  1  0
 26 51  1  0
 27 52  1  0
 28 53  1  0
 29 54  1  0
M  END
$$$$
