
     RDKit          3D

 55 58  0  0  0  0  0  0  0  0999 V2000
   -4.6579   -2.5215   -2.3252 C   0  0  0  0  0  0  0  0  0  0  0  0
   -4.8894   -2.6733   -0.9268 O   0  0  0  0  0  0  0  0  0  0  0  0
   -4.0183   -2.0493   -0.0696 C   0  0  0  0  0  0  0  0  0  0  0  0
   -3.0709   -1.0910   -0.4677 C   0  0  0  0  0  0  0  0  0  0  0  0
   -2.1844   -0.5214    0.4565 C   0  0  0  0  0  0  0  0  0  0  0  0
   -1.2134    0.4492    0.1279 N   0  0  0  0  0  0  0  0  0  0  0  0
   -1.0572    1.1195   -1.0672 C   0  0  0  0  0  0  0  0  0  0  0  0
   -1.7728    1.0195   -2.0584 O   0  0  0  0  0  0  0  0  0  0  0  0
    0.0102    2.1564   -1.0939 C   0  0  0  0  0  0  0  0  0  0  0  0
   -0.2873    3.3762   -1.7363 C   0  0  0  0  0  0  0  0  0  0  0  0
    0.6541    4.4202   -1.7952 C   0  0  0  0  0  0  0  0  0  0  0  0
    1.9219    4.2646   -1.2249 C   0  0  0  0  0  0  0  0  0  0  0  0
    2.2264    3.0554   -0.6141 C   0  0  0  0  0  0  0  0  0  0  0  0
    1.2800    2.0216   -0.5457 C   0  0  0  0  0  0  0  0  0  0  0  0
    1.9390    0.8792    0.1103 C   0  0  0  0  0  0  0  0  0  0  0  0
    1.4257   -0.1973    0.3414 O   0  0  0  0  0  0  0  0  0  0  0  0
    3.2285    1.2670    0.4167 N   0  0  0  0  0  0  0  0  0  0  0  0
    4.2404    0.3724    0.9520 C   0  0  0  0  0  0  0  0  0  0  0  0
    5.2876    0.0207   -0.0678 C   0  0  0  0  0  0  0  0  0  0  0  0
    6.5865    0.5297    0.0051 C   0  0  0  0  0  0  0  0  0  0  0  0
    7.5040    0.2140   -0.9988 C   0  0  0  0  0  0  0  0  0  0  0  0
    7.0986   -0.6230   -2.0291 C   0  0  0  0  0  0  0  0  0  0  0  0
    5.8563   -1.1392   -2.1275 N   0  0  0  0  0  0  0  0  0  0  0  0
    4.9782   -0.8039   -1.1514 C   0  0  0  0  0  0  0  0  0  0  0  0
    3.5211    2.6270    0.0032 C   0  0  0  0  0  0  0  0  0  0  0  0
   -2.2466   -0.9211    1.7979 C   0  0  0  0  0  0  0  0  0  0  0  0
   -3.1991   -1.8519    2.2087 C   0  0  0  0  0  0  0  0  0  0  0  0
   -3.1845   -2.2478    3.5237 O   0  0  0  0  0  0  0  0  0  0  0  0
   -4.0648   -1.4302    4.2940 C   0  0  0  0  0  0  0  0  0  0  0  0
   -4.0992   -2.4090    1.2904 C   0  0  0  0  0  0  0  0  0  0  0  0
   -4.9701   -3.3565    1.7660 O   0  0  0  0  0  0  0  0  0  0  0  0
   -6.3366   -3.0256    1.5273 C   0  0  0  0  0  0  0  0  0  0  0  0
   -5.3839   -3.1473   -2.8543 H   0  0  0  0  0  0  0  0  0  0  0  0
   -4.8306   -1.4866   -2.6437 H   0  0  0  0  0  0  0  0  0  0  0  0
   -3.6529   -2.8660   -2.6015 H   0  0  0  0  0  0  0  0  0  0  0  0
   -3.0064   -0.8001   -1.5102 H   0  0  0  0  0  0  0  0  0  0  0  0
   -0.5642    0.6774    0.8752 H   0  0  0  0  0  0  0  0  0  0  0  0
   -1.2667    3.5212   -2.2008 H   0  0  0  0  0  0  0  0  0  0  0  0
    0.3903    5.3543   -2.2999 H   0  0  0  0  0  0  0  0  0  0  0  0
    2.6510    5.0680   -1.2831 H   0  0  0  0  0  0  0  0  0  0  0  0
    3.7669   -0.5534    1.3088 H   0  0  0  0  0  0  0  0  0  0  0  0
    4.6830    0.8611    1.8288 H   0  0  0  0  0  0  0  0  0  0  0  0
    6.8850    1.1790    0.8243 H   0  0  0  0  0  0  0  0  0  0  0  0
    8.5188    0.5946   -0.9705 H   0  0  0  0  0  0  0  0  0  0  0  0
    7.7844   -0.9087   -2.8254 H   0  0  0  0  0  0  0  0  0  0  0  0
    3.9748   -1.2149   -1.2656 H   0  0  0  0  0  0  0  0  0  0  0  0
    3.7779    3.2217    0.8878 H   0  0  0  0  0  0  0  0  0  0  0  0
    4.3316    2.6270   -0.7335 H   0  0  0  0  0  0  0  0  0  0  0  0
   -1.5615   -0.5114    2.5390 H   0  0  0  0  0  0  0  0  0  0  0  0
   -3.5915   -0.4646    4.5050 H   0  0  0  0  0  0  0  0  0  0  0  0
   -5.0358   -1.2774    3.8035 H   0  0  0  0  0  0  0  0  0  0  0  0
   -4.2482   -1.9320    5.2501 H   0  0  0  0  0  0  0  0  0  0  0  0
   -6.7130   -3.5854    0.6640 H   0  0  0  0  0  0  0  0  0  0  0  0
   -6.5041   -1.9483    1.3941 H   0  0  0  0  0  0  0  0  0  0  0  0
   -6.9109   -3.3386    2.4051 H   0  0  0  0  0  0  0  0  0  0  0  0
  1  2  1  0
  2  3  1  0
  3  4  2  0
  4  5  1  0
  5  6  1  0
  6  7  1  0
  7  8  2  0
  7  9  1  0
  9 10  2  0
 10 11  1  0
 11 12  2  0
 12 13  1  0
 13 14  2  0
 14 15  1  0
 15 16  2  0
 15 17  1  0
 17 18  1  0
 18 19  1  0
 19 20  2  0
 20 21  1  0
 21 22  2  0
 22 23  1  0
 23 24  2  0
 17 25  1  0
  5 26  2  0
 26 27  1  0
 27 28  1  0
 28 29  1  0
 27 30  2  0
 30 31  1  0
 31 32  1  0
 30  3  1  0
 14  9  1  0
 24 19  1  0
 25 13  1  0
  1 33  1  0
  1 34  1  0
  1 35  1  0
  4 36  1  0
  6 37  1  0
 10 38  1  0
 11 39  1  0
 12 40  1  0
 18 41  1  0
 18 42  1  0
 20 43  1  0
 21 44  1  0
 22 45  1  0
 24 46  1  0
 25 47  1  0
 25 48  1  0
 26 49  1  0
 29 50  1  0
 29 51  1  0
 29 52  1  0
 32 53  1  0
 32 54  1  0
 32 55  1  0
M  END
$$$$
