
     RDKit          3D

 46 48  0  0  0  0  0  0  0  0999 V2000
   -4.0243    0.2422    2.3242 C   0  0  0  0  0  0  0  0  0  0  0  0
   -4.8282   -0.1959    1.0929 C   0  0  0  0  0  0  0  0  0  0  0  0
   -4.4489    0.6626   -0.1203 C   0  0  0  0  0  0  0  0  0  0  0  0
   -6.3226    0.0131    1.4017 C   0  0  0  0  0  0  0  0  0  0  0  0
   -4.5836   -1.9587    0.7159 S   0  0  0  0  0  6  0  0  0  0  0  0
   -5.4708   -2.3174   -0.3806 O   0  0  0  0  0  0  0  0  0  0  0  0
   -4.5912   -2.7338    1.9440 O   0  0  0  0  0  0  0  0  0  0  0  0
   -2.9249   -2.1304    0.0470 C   0  0  0  0  0  0  0  0  0  0  0  0
   -2.7459   -2.9920   -1.1596 C   0  0  0  0  0  0  0  0  0  0  0  0
   -1.5110   -3.1448   -1.6550 C   0  0  0  0  0  0  0  0  0  0  0  0
   -0.4114   -2.4499   -0.9803 C   0  0  0  0  0  0  0  0  0  0  0  0
    0.8497   -2.4760   -1.2889 N   0  0  0  0  0  0  0  0  0  0  0  0
    1.4287   -1.6565   -0.3320 N   0  0  0  0  0  0  0  0  0  0  0  0
    2.8413   -1.4045   -0.2392 C   0  0  0  0  0  0  0  0  0  0  0  0
    3.1864    0.0161   -0.7112 C   0  0  0  0  0  0  0  0  0  0  0  0
    2.4064    0.7078   -1.3584 O   0  0  0  0  0  0  0  0  0  0  0  0
    4.4812    0.3754   -0.3429 N   0  0  0  0  0  0  0  0  0  0  0  0
    5.1368    1.6017   -0.5852 C   0  0  0  0  0  0  0  0  0  0  0  0
    6.4387    1.7363   -0.0842 C   0  0  0  0  0  0  0  0  0  0  0  0
    7.1590    2.9213   -0.2704 C   0  0  0  0  0  0  0  0  0  0  0  0
    6.5801    3.9792   -0.9655 C   0  0  0  0  0  0  0  0  0  0  0  0
    7.5498    5.5841   -1.2226 Br  0  0  0  0  0  0  0  0  0  0  0  0
    5.2903    3.8597   -1.4721 C   0  0  0  0  0  0  0  0  0  0  0  0
    4.5702    2.6727   -1.2805 C   0  0  0  0  0  0  0  0  0  0  0  0
    0.4680   -1.1861    0.5839 C   0  0  0  0  0  0  0  0  0  0  0  0
    0.6805   -0.5206    1.5878 O   0  0  0  0  0  0  0  0  0  0  0  0
   -0.7223   -1.6938    0.1020 N   0  0  0  0  0  0  0  0  0  0  0  0
   -1.9513   -1.5191    0.6581 N   0  0  0  0  0  0  0  0  0  0  0  0
   -2.9484    0.1483    2.1706 H   0  0  0  0  0  0  0  0  0  0  0  0
   -4.2224    1.2958    2.5508 H   0  0  0  0  0  0  0  0  0  0  0  0
   -4.2833   -0.3384    3.2160 H   0  0  0  0  0  0  0  0  0  0  0  0
   -4.9467    0.3054   -1.0294 H   0  0  0  0  0  0  0  0  0  0  0  0
   -4.7454    1.7094    0.0277 H   0  0  0  0  0  0  0  0  0  0  0  0
   -3.3719    0.6511   -0.3118 H   0  0  0  0  0  0  0  0  0  0  0  0
   -6.9451   -0.2084    0.5297 H   0  0  0  0  0  0  0  0  0  0  0  0
   -6.6549   -0.6410    2.2152 H   0  0  0  0  0  0  0  0  0  0  0  0
   -6.5220    1.0471    1.7052 H   0  0  0  0  0  0  0  0  0  0  0  0
   -3.6113   -3.4788   -1.5923 H   0  0  0  0  0  0  0  0  0  0  0  0
   -1.2813   -3.7600   -2.5144 H   0  0  0  0  0  0  0  0  0  0  0  0
    3.3803   -2.1302   -0.8605 H   0  0  0  0  0  0  0  0  0  0  0  0
    3.1429   -1.5199    0.8076 H   0  0  0  0  0  0  0  0  0  0  0  0
    5.0083   -0.3035    0.1957 H   0  0  0  0  0  0  0  0  0  0  0  0
    6.9126    0.9224    0.4616 H   0  0  0  0  0  0  0  0  0  0  0  0
    8.1639    3.0053    0.1292 H   0  0  0  0  0  0  0  0  0  0  0  0
    4.8285    4.6802   -2.0201 H   0  0  0  0  0  0  0  0  0  0  0  0
    3.5652    2.6227   -1.6896 H   0  0  0  0  0  0  0  0  0  0  0  0
  1  2  1  0
  2  3  1  0
  2  4  1  0
  2  5  1  0
  5  6  2  0
  5  7  2  0
  5  8  1  0
  8  9  1  0
  9 10  2  0
 10 11  1  0
 11 12  2  0
 12 13  1  0
 13 14  1  0
 14 15  1  0
 15 16  2  0
 15 17  1  0
 17 18  1  0
 18 19  2  0
 19 20  1  0
 20 21  2  0
 21 22  1  0
 21 23  1  0
 23 24  2  0
 13 25  1  0
 25 26  2  0
 25 27  1  0
 27 28  1  0
 28  8  2  0
 27 11  1  0
 24 18  1  0
  1 29  1  0
  1 30  1  0
  1 31  1  0
  3 32  1  0
  3 33  1  0
  3 34  1  0
  4 35  1  0
  4 36  1  0
  4 37  1  0
  9 38  1  0
 10 39  1  0
 14 40  1  0
 14 41  1  0
 17 42  1  0
 19 43  1  0
 20 44  1  0
 23 45  1  0
 24 46  1  0
M  END
$$$$
