
     RDKit          3D

 35 36  0  0  0  0  0  0  0  0999 V2000
   -2.5629    3.4636    1.0720 C   0  0  0  0  0  0  0  0  0  0  0  0
   -2.8070    2.2775    0.3301 O   0  0  0  0  0  0  0  0  0  0  0  0
   -1.9849    1.2013    0.5567 C   0  0  0  0  0  0  0  0  0  0  0  0
   -0.8963    1.2119    1.4376 C   0  0  0  0  0  0  0  0  0  0  0  0
   -0.1087    0.0712    1.5992 C   0  0  0  0  0  0  0  0  0  0  0  0
   -0.4053   -1.0783    0.8665 C   0  0  0  0  0  0  0  0  0  0  0  0
    0.5969   -2.5348    1.0632 S   0  0  0  0  0  6  0  0  0  0  0  0
    1.3186   -2.4154    2.3118 O   0  0  0  0  0  0  0  0  0  0  0  0
   -0.2463   -3.6801    0.7922 O   0  0  0  0  0  0  0  0  0  0  0  0
    1.6848   -2.4348   -0.2271 N   0  0  0  0  0  0  0  0  0  0  0  0
    2.4499   -1.2375   -0.3988 C   0  0  0  0  0  0  0  0  0  0  0  0
    3.3890   -0.8693    0.5671 C   0  0  0  0  0  0  0  0  0  0  0  0
    4.1160    0.3145    0.4261 C   0  0  0  0  0  0  0  0  0  0  0  0
    3.9099    1.1346   -0.6825 C   0  0  0  0  0  0  0  0  0  0  0  0
    2.9808    0.7705   -1.6575 C   0  0  0  0  0  0  0  0  0  0  0  0
    2.2543   -0.4143   -1.5179 C   0  0  0  0  0  0  0  0  0  0  0  0
    1.0092   -0.8705   -2.8773 Br  0  0  0  0  0  0  0  0  0  0  0  0
   -1.5028   -1.1151    0.0006 C   0  0  0  0  0  0  0  0  0  0  0  0
   -2.2921    0.0265   -0.1647 C   0  0  0  0  0  0  0  0  0  0  0  0
   -3.3771    0.1016   -1.0028 O   0  0  0  0  0  0  0  0  0  0  0  0
   -3.7478   -1.0712   -1.7137 C   0  0  0  0  0  0  0  0  0  0  0  0
   -2.6680    3.2866    2.1474 H   0  0  0  0  0  0  0  0  0  0  0  0
   -1.5800    3.8829    0.8331 H   0  0  0  0  0  0  0  0  0  0  0  0
   -3.3175    4.2010    0.7817 H   0  0  0  0  0  0  0  0  0  0  0  0
   -0.6351    2.0935    2.0137 H   0  0  0  0  0  0  0  0  0  0  0  0
    0.7320    0.0915    2.2897 H   0  0  0  0  0  0  0  0  0  0  0  0
    1.2872   -2.8379   -1.0764 H   0  0  0  0  0  0  0  0  0  0  0  0
    3.5706   -1.5033    1.4324 H   0  0  0  0  0  0  0  0  0  0  0  0
    4.8464    0.5937    1.1823 H   0  0  0  0  0  0  0  0  0  0  0  0
    4.4783    2.0558   -0.7900 H   0  0  0  0  0  0  0  0  0  0  0  0
    2.8320    1.4154   -2.5202 H   0  0  0  0  0  0  0  0  0  0  0  0
   -1.7181   -2.0342   -0.5344 H   0  0  0  0  0  0  0  0  0  0  0  0
   -2.9565   -1.3799   -2.4046 H   0  0  0  0  0  0  0  0  0  0  0  0
   -4.6349   -0.8349   -2.3092 H   0  0  0  0  0  0  0  0  0  0  0  0
   -4.0144   -1.8821   -1.0278 H   0  0  0  0  0  0  0  0  0  0  0  0
  1  2  1  0
  2  3  1  0
  3  4  2  0
  4  5  1  0
  5  6  2  0
  6  7  1  0
  7  8  2  0
  7  9  2  0
  7 10  1  0
 10 11  1  0
 11 12  2  0
 12 13  1  0
 13 14  2  0
 14 15  1  0
 15 16  2  0
 16 17  1  0
  6 18  1  0
 18 19  2  0
 19 20  1  0
 20 21  1  0
 19  3  1  0
 16 11  1  0
  1 22  1  0
  1 23  1  0
  1 24  1  0
  4 25  1  0
  5 26  1  0
 10 27  1  0
 12 28  1  0
 13 29  1  0
 14 30  1  0
 15 31  1  0
 18 32  1  0
 21 33  1  0
 21 34  1  0
 21 35  1  0
M  END
$$$$
