
     RDKit          3D

 53 55  0  0  0  0  0  0  0  0999 V2000
   -5.8456    0.7393    0.6348 C   0  0  0  0  0  0  0  0  0  0  0  0
   -4.6387    0.0025    0.4929 O   0  0  0  0  0  0  0  0  0  0  0  0
   -3.4909    0.7255    0.2905 C   0  0  0  0  0  0  0  0  0  0  0  0
   -3.4770    2.0449   -0.1696 C   0  0  0  0  0  0  0  0  0  0  0  0
   -2.2726    2.7372   -0.2894 C   0  0  0  0  0  0  0  0  0  0  0  0
   -1.0705    2.1180    0.0480 C   0  0  0  0  0  0  0  0  0  0  0  0
   -1.0455    0.7775    0.4752 C   0  0  0  0  0  0  0  0  0  0  0  0
    0.2705    0.1194    0.9005 C   0  0  0  0  0  0  0  0  0  0  0  0
    0.4972    0.5009    2.3733 C   0  0  0  0  0  0  0  0  0  0  0  0
    1.9312    0.4403    2.8223 C   0  0  0  0  0  0  0  0  0  0  0  0
    2.2511    0.3022    4.0007 O   0  0  0  0  0  0  0  0  0  0  0  0
    2.8845    0.6646    1.8688 N   0  0  0  0  0  0  0  0  0  0  0  0
    2.6803    0.6876    0.5115 C   0  0  0  0  0  0  0  0  0  0  0  0
    1.4627    0.4125    0.0111 C   0  0  0  0  0  0  0  0  0  0  0  0
    1.3201    0.2789   -1.4739 C   0  0  0  0  0  0  0  0  0  0  0  0
    0.3010   -0.1846   -1.9793 O   0  0  0  0  0  0  0  0  0  0  0  0
    2.4605    0.7502   -2.3510 C   0  0  0  0  0  0  0  0  0  0  0  0
    3.8268    0.3866   -1.7567 C   0  0  0  0  0  0  0  0  0  0  0  0
    4.0269   -1.1435   -1.7587 C   0  0  0  0  0  0  0  0  0  0  0  0
    4.9391    1.0162   -2.6134 C   0  0  0  0  0  0  0  0  0  0  0  0
    3.9135    0.9429   -0.3222 C   0  0  0  0  0  0  0  0  0  0  0  0
   -2.2684    0.0815    0.5711 C   0  0  0  0  0  0  0  0  0  0  0  0
   -2.2276   -1.2026    1.0670 O   0  0  0  0  0  0  0  0  0  0  0  0
   -2.7170   -2.1914    0.1431 C   0  0  0  0  0  0  0  0  0  0  0  0
   -3.6857   -3.0948    0.8998 C   0  0  0  0  0  0  0  0  0  0  0  0
   -1.5325   -3.0118   -0.3599 C   0  0  0  0  0  0  0  0  0  0  0  0
   -6.6114    0.0552    1.0122 H   0  0  0  0  0  0  0  0  0  0  0  0
   -6.1841    1.1197   -0.3330 H   0  0  0  0  0  0  0  0  0  0  0  0
   -5.7407    1.5505    1.3630 H   0  0  0  0  0  0  0  0  0  0  0  0
   -4.3912    2.5635   -0.4382 H   0  0  0  0  0  0  0  0  0  0  0  0
   -2.2728    3.7676   -0.6356 H   0  0  0  0  0  0  0  0  0  0  0  0
   -0.1518    2.6949   -0.0234 H   0  0  0  0  0  0  0  0  0  0  0  0
    0.1600   -0.9715    0.8565 H   0  0  0  0  0  0  0  0  0  0  0  0
    0.1630    1.5262    2.5819 H   0  0  0  0  0  0  0  0  0  0  0  0
   -0.0927   -0.1646    3.0164 H   0  0  0  0  0  0  0  0  0  0  0  0
    3.8278    0.7278    2.2388 H   0  0  0  0  0  0  0  0  0  0  0  0
    2.3541    1.8348   -2.4748 H   0  0  0  0  0  0  0  0  0  0  0  0
    2.3456    0.2929   -3.3414 H   0  0  0  0  0  0  0  0  0  0  0  0
    5.0124   -1.4103   -1.3608 H   0  0  0  0  0  0  0  0  0  0  0  0
    3.2789   -1.6624   -1.1508 H   0  0  0  0  0  0  0  0  0  0  0  0
    3.9610   -1.5460   -2.7759 H   0  0  0  0  0  0  0  0  0  0  0  0
    4.8385    2.1062   -2.6570 H   0  0  0  0  0  0  0  0  0  0  0  0
    5.9297    0.7903   -2.2035 H   0  0  0  0  0  0  0  0  0  0  0  0
    4.9074    0.6390   -3.6415 H   0  0  0  0  0  0  0  0  0  0  0  0
    4.0698    2.0300   -0.3485 H   0  0  0  0  0  0  0  0  0  0  0  0
    4.7972    0.5174    0.1722 H   0  0  0  0  0  0  0  0  0  0  0  0
   -3.2277   -1.7532   -0.7225 H   0  0  0  0  0  0  0  0  0  0  0  0
   -4.5275   -2.5191    1.2960 H   0  0  0  0  0  0  0  0  0  0  0  0
   -3.1944   -3.5612    1.7617 H   0  0  0  0  0  0  0  0  0  0  0  0
   -4.0787   -3.8842    0.2520 H   0  0  0  0  0  0  0  0  0  0  0  0
   -0.9620   -3.4334    0.4748 H   0  0  0  0  0  0  0  0  0  0  0  0
   -1.8617   -3.8288   -1.0094 H   0  0  0  0  0  0  0  0  0  0  0  0
   -0.8422   -2.3813   -0.9274 H   0  0  0  0  0  0  0  0  0  0  0  0
  1  2  1  0
  2  3  1  0
  3  4  2  0
  4  5  1  0
  5  6  2  0
  6  7  1  0
  7  8  1  0
  8  9  1  0
  9 10  1  0
 10 11  2  0
 10 12  1  0
 12 13  1  0
 13 14  2  0
 14 15  1  0
 15 16  2  0
 15 17  1  0
 17 18  1  0
 18 19  1  0
 18 20  1  0
 18 21  1  0
  7 22  2  0
 22 23  1  0
 23 24  1  0
 24 25  1  0
 24 26  1  0
 22  3  1  0
 14  8  1  0
 21 13  1  0
  1 27  1  0
  1 28  1  0
  1 29  1  0
  4 30  1  0
  5 31  1  0
  6 32  1  0
  8 33  1  0
  9 34  1  0
  9 35  1  0
 12 36  1  0
 17 37  1  0
 17 38  1  0
 19 39  1  0
 19 40  1  0
 19 41  1  0
 20 42  1  0
 20 43  1  0
 20 44  1  0
 21 45  1  0
 21 46  1  0
 24 47  1  0
 25 48  1  0
 25 49  1  0
 25 50  1  0
 26 51  1  0
 26 52  1  0
 26 53  1  0
M  END
$$$$
