
     RDKit          3D

 54 56  0  0  0  0  0  0  0  0999 V2000
   -9.6862   -0.6804    0.1476 C   0  0  0  0  0  0  0  0  0  0  0  0
   -8.7931    0.3957   -0.0981 O   0  0  0  0  0  0  0  0  0  0  0  0
   -7.4520    0.1595    0.0694 C   0  0  0  0  0  0  0  0  0  0  0  0
   -6.9097   -1.0564    0.4908 C   0  0  0  0  0  0  0  0  0  0  0  0
   -5.5250   -1.2082    0.6293 C   0  0  0  0  0  0  0  0  0  0  0  0
   -4.6636   -0.1493    0.3504 C   0  0  0  0  0  0  0  0  0  0  0  0
   -3.2584   -0.2264    0.4689 N   0  0  0  0  0  0  0  0  0  0  0  0
   -2.5026   -1.3495    0.7583 C   0  0  0  0  0  0  0  0  0  0  0  0
   -2.9081   -2.4939    0.9165 O   0  0  0  0  0  0  0  0  0  0  0  0
   -1.0355   -1.1044    0.8316 C   0  0  0  0  0  0  0  0  0  0  0  0
   -0.1677   -2.0632    0.3043 C   0  0  0  0  0  0  0  0  0  0  0  0
    1.2173   -1.8633    0.3474 C   0  0  0  0  0  0  0  0  0  0  0  0
    1.7501   -0.7113    0.9292 C   0  0  0  0  0  0  0  0  0  0  0  0
    3.1309   -0.4336    1.0085 N   0  0  0  0  0  0  0  0  0  0  0  0
    4.1719   -1.2025    0.5179 C   0  0  0  0  0  0  0  0  0  0  0  0
    4.0789   -2.2667   -0.0818 O   0  0  0  0  0  0  0  0  0  0  0  0
    5.5176   -0.5565    0.7744 C   0  0  0  0  0  0  0  0  0  0  0  0
    6.6525   -1.4600    0.3236 C   0  0  0  0  0  0  0  0  0  0  0  0
    8.2345   -0.6637    0.4412 S   0  0  0  0  0  6  0  0  0  0  0  0
    9.2571   -1.5997    0.0164 O   0  0  0  0  0  0  0  0  0  0  0  0
    8.3085    0.0394    1.7063 O   0  0  0  0  0  0  0  0  0  0  0  0
    8.1779    0.5545   -0.8631 C   0  0  0  0  0  0  0  0  0  0  0  0
    8.0198    0.4180   -2.2325 C   0  0  0  0  0  0  0  0  0  0  0  0
    8.0053    1.6754   -2.9034 C   0  0  0  0  0  0  0  0  0  0  0  0
    8.1768    2.7219   -2.0331 C   0  0  0  0  0  0  0  0  0  0  0  0
    8.3412    2.1925   -0.4153 S   0  0  0  0  0  0  0  0  0  0  0  0
    0.8745    0.2355    1.4798 C   0  0  0  0  0  0  0  0  0  0  0  0
   -0.5114    0.0430    1.4349 C   0  0  0  0  0  0  0  0  0  0  0  0
   -5.2058    1.0751   -0.0650 C   0  0  0  0  0  0  0  0  0  0  0  0
   -6.5905    1.2364   -0.2136 C   0  0  0  0  0  0  0  0  0  0  0  0
   -7.1945    2.4024   -0.6142 O   0  0  0  0  0  0  0  0  0  0  0  0
   -6.3663    3.4476   -1.0925 C   0  0  0  0  0  0  0  0  0  0  0  0
   -9.6457   -0.9919    1.1958 H   0  0  0  0  0  0  0  0  0  0  0  0
   -9.4906   -1.5205   -0.5252 H   0  0  0  0  0  0  0  0  0  0  0  0
  -10.7011   -0.3246   -0.0543 H   0  0  0  0  0  0  0  0  0  0  0  0
   -7.5335   -1.9142    0.7222 H   0  0  0  0  0  0  0  0  0  0  0  0
   -5.1551   -2.1720    0.9654 H   0  0  0  0  0  0  0  0  0  0  0  0
   -2.7505    0.6167    0.2343 H   0  0  0  0  0  0  0  0  0  0  0  0
   -0.5639   -2.9720   -0.1460 H   0  0  0  0  0  0  0  0  0  0  0  0
    1.8487   -2.6369   -0.0791 H   0  0  0  0  0  0  0  0  0  0  0  0
    3.3820    0.4302    1.4748 H   0  0  0  0  0  0  0  0  0  0  0  0
    5.5396    0.3947    0.2351 H   0  0  0  0  0  0  0  0  0  0  0  0
    5.6085   -0.3427    1.8440 H   0  0  0  0  0  0  0  0  0  0  0  0
    6.7020   -2.3528    0.9569 H   0  0  0  0  0  0  0  0  0  0  0  0
    6.5304   -1.7977   -0.7106 H   0  0  0  0  0  0  0  0  0  0  0  0
    7.9261   -0.5417   -2.7243 H   0  0  0  0  0  0  0  0  0  0  0  0
    7.8913    1.8044   -3.9732 H   0  0  0  0  0  0  0  0  0  0  0  0
    8.2214    3.7798   -2.2661 H   0  0  0  0  0  0  0  0  0  0  0  0
    1.2573    1.1320    1.9609 H   0  0  0  0  0  0  0  0  0  0  0  0
   -1.1622    0.7772    1.9009 H   0  0  0  0  0  0  0  0  0  0  0  0
   -4.5343    1.9013   -0.2700 H   0  0  0  0  0  0  0  0  0  0  0  0
   -5.7449    3.8561   -0.2903 H   0  0  0  0  0  0  0  0  0  0  0  0
   -5.7546    3.1147   -1.9348 H   0  0  0  0  0  0  0  0  0  0  0  0
   -7.0154    4.2517   -1.4492 H   0  0  0  0  0  0  0  0  0  0  0  0
  1  2  1  0
  2  3  1  0
  3  4  2  0
  4  5  1  0
  5  6  2  0
  6  7  1  0
  7  8  1  0
  8  9  2  0
  8 10  1  0
 10 11  2  0
 11 12  1  0
 12 13  2  0
 13 14  1  0
 14 15  1  0
 15 16  2  0
 15 17  1  0
 17 18  1  0
 18 19  1  0
 19 20  2  0
 19 21  2  0
 19 22  1  0
 22 23  2  0
 23 24  1  0
 24 25  2  0
 25 26  1  0
 13 27  1  0
 27 28  2  0
  6 29  1  0
 29 30  2  0
 30 31  1  0
 31 32  1  0
 30  3  1  0
 28 10  1  0
 26 22  1  0
  1 33  1  0
  1 34  1  0
  1 35  1  0
  4 36  1  0
  5 37  1  0
  7 38  1  0
 11 39  1  0
 12 40  1  0
 14 41  1  0
 17 42  1  0
 17 43  1  0
 18 44  1  0
 18 45  1  0
 23 46  1  0
 24 47  1  0
 25 48  1  0
 27 49  1  0
 28 50  1  0
 29 51  1  0
 32 52  1  0
 32 53  1  0
 32 54  1  0
M  END
$$$$
