
     RDKit          3D

 38 40  0  0  0  0  0  0  0  0999 V2000
   -1.5822    1.9013   -0.5206 C   0  0  0  0  0  0  0  0  0  0  0  0
   -2.1280    1.0775    0.6415 C   0  0  0  0  0  0  0  0  0  0  0  0
   -2.2848   -0.3955    0.3280 C   0  0  0  0  0  0  0  0  0  0  0  0
   -3.0317   -0.7731   -0.8047 C   0  0  0  0  0  0  0  0  0  0  0  0
   -3.2120   -2.1161   -1.1398 C   0  0  0  0  0  0  0  0  0  0  0  0
   -2.6628   -3.1104   -0.3399 C   0  0  0  0  0  0  0  0  0  0  0  0
   -1.9398   -2.7601    0.7983 C   0  0  0  0  0  0  0  0  0  0  0  0
   -1.7513   -1.4153    1.1387 C   0  0  0  0  0  0  0  0  0  0  0  0
   -1.0126   -1.1112    2.3162 N   0  0  0  0  0  0  0  0  0  0  0  0
    0.6241   -1.4823    2.4249 S   0  0  0  0  0  6  0  0  0  0  0  0
    1.1054   -0.8139    3.6164 O   0  0  0  0  0  0  0  0  0  0  0  0
    0.8213   -2.9033    2.2368 O   0  0  0  0  0  0  0  0  0  0  0  0
    1.3312   -0.6406    1.0223 C   0  0  0  0  0  0  0  0  0  0  0  0
    1.4617   -1.3300   -0.2030 C   0  0  0  0  0  0  0  0  0  0  0  0
    2.0330   -0.6982   -1.3106 C   0  0  0  0  0  0  0  0  0  0  0  0
    2.4664    0.6001   -1.1431 C   0  0  0  0  0  0  0  0  0  0  0  0
    2.3578    1.2818    0.0692 C   0  0  0  0  0  0  0  0  0  0  0  0
    1.7947    0.6740    1.1757 C   0  0  0  0  0  0  0  0  0  0  0  0
    2.9263    2.6616   -0.0842 C   0  0  0  0  0  0  0  0  0  0  0  0
    3.3640    2.6679   -1.5537 C   0  0  0  0  0  0  0  0  0  0  0  0
    3.8845    3.5925   -2.1546 O   0  0  0  0  0  0  0  0  0  0  0  0
    3.0569    1.4222   -2.0880 N   0  0  0  0  0  0  0  0  0  0  0  0
   -0.6470    1.4809   -0.9018 H   0  0  0  0  0  0  0  0  0  0  0  0
   -1.3872    2.9279   -0.1936 H   0  0  0  0  0  0  0  0  0  0  0  0
   -2.2918    1.9519   -1.3522 H   0  0  0  0  0  0  0  0  0  0  0  0
   -1.4552    1.2319    1.4900 H   0  0  0  0  0  0  0  0  0  0  0  0
   -3.1043    1.4728    0.9473 H   0  0  0  0  0  0  0  0  0  0  0  0
   -3.4893   -0.0179   -1.4407 H   0  0  0  0  0  0  0  0  0  0  0  0
   -3.7892   -2.3838   -2.0216 H   0  0  0  0  0  0  0  0  0  0  0  0
   -2.8065   -4.1581   -0.5910 H   0  0  0  0  0  0  0  0  0  0  0  0
   -1.5391   -3.5502    1.4301 H   0  0  0  0  0  0  0  0  0  0  0  0
   -1.2902   -0.3156    2.8852 H   0  0  0  0  0  0  0  0  0  0  0  0
    1.1144   -2.3581   -0.2935 H   0  0  0  0  0  0  0  0  0  0  0  0
    2.1308   -1.2168   -2.2576 H   0  0  0  0  0  0  0  0  0  0  0  0
    1.7196    1.1961    2.1249 H   0  0  0  0  0  0  0  0  0  0  0  0
    2.1618    3.4260    0.0750 H   0  0  0  0  0  0  0  0  0  0  0  0
    3.7968    2.8078    0.5599 H   0  0  0  0  0  0  0  0  0  0  0  0
    3.2542    1.1765   -3.0466 H   0  0  0  0  0  0  0  0  0  0  0  0
  1  2  1  0
  2  3  1  0
  3  4  2  0
  4  5  1  0
  5  6  2  0
  6  7  1  0
  7  8  2  0
  8  9  1  0
  9 10  1  0
 10 11  2  0
 10 12  2  0
 10 13  1  0
 13 14  2  0
 14 15  1  0
 15 16  2  0
 16 17  1  0
 17 18  2  0
 17 19  1  0
 19 20  1  0
 20 21  2  0
 20 22  1  0
  8  3  1  0
 18 13  1  0
 22 16  1  0
  1 23  1  0
  1 24  1  0
  1 25  1  0
  2 26  1  0
  2 27  1  0
  4 28  1  0
  5 29  1  0
  6 30  1  0
  7 31  1  0
  9 32  1  0
 14 33  1  0
 15 34  1  0
 18 35  1  0
 19 36  1  0
 19 37  1  0
 22 38  1  0
M  END
$$$$
