
     RDKit          3D

 53 56  0  0  0  0  0  0  0  0999 V2000
   -5.8583   -1.3924   -2.5974 C   0  0  0  0  0  0  0  0  0  0  0  0
   -6.3790   -0.9675   -1.2508 C   0  0  0  0  0  0  0  0  0  0  0  0
   -7.6196   -1.4722   -0.8256 C   0  0  0  0  0  0  0  0  0  0  0  0
   -8.1500   -1.1218    0.4153 C   0  0  0  0  0  0  0  0  0  0  0  0
   -7.4479   -0.2637    1.2549 C   0  0  0  0  0  0  0  0  0  0  0  0
   -6.2084    0.2430    0.8606 C   0  0  0  0  0  0  0  0  0  0  0  0
   -5.6676   -0.1102   -0.3844 C   0  0  0  0  0  0  0  0  0  0  0  0
   -4.0660    0.5243   -0.8863 S   0  0  0  0  0  6  0  0  0  0  0  0
   -3.2538   -0.6384   -1.1986 O   0  0  0  0  0  0  0  0  0  0  0  0
   -4.3476    1.5354   -1.8913 O   0  0  0  0  0  0  0  0  0  0  0  0
   -3.3543    1.3330    0.5325 C   0  0  0  0  0  0  0  0  0  0  0  0
   -1.9784    1.7915    0.2195 C   0  0  0  0  0  0  0  0  0  0  0  0
   -1.3993    2.4893   -0.8192 C   0  0  0  0  0  0  0  0  0  0  0  0
   -0.0305    2.6371   -0.4881 C   0  0  0  0  0  0  0  0  0  0  0  0
    0.1597    2.0236    0.7371 C   0  0  0  0  0  0  0  0  0  0  0  0
    1.3139    1.8650    1.6073 C   0  0  0  0  0  0  0  0  0  0  0  0
    1.2048    1.9080    2.8340 O   0  0  0  0  0  0  0  0  0  0  0  0
    2.5702    1.6785    1.0116 N   0  0  0  0  0  0  0  0  0  0  0  0
    3.7400    1.5696    1.8853 C   0  0  0  0  0  0  0  0  0  0  0  0
    4.2463    0.1178    1.9791 C   0  0  0  0  0  0  0  0  0  0  0  0
    4.4193   -0.4934    0.6429 N   0  0  0  0  0  0  0  0  0  0  0  0
    5.5369   -1.3157    0.4766 C   0  0  0  0  0  0  0  0  0  0  0  0
    5.8588   -2.2769    1.4378 C   0  0  0  0  0  0  0  0  0  0  0  0
    6.9694   -3.1015    1.2607 C   0  0  0  0  0  0  0  0  0  0  0  0
    7.7397   -2.9607    0.1185 C   0  0  0  0  0  0  0  0  0  0  0  0
    7.3560   -2.0024   -0.7988 C   0  0  0  0  0  0  0  0  0  0  0  0
    6.2835   -1.1932   -0.6437 N   0  0  0  0  0  0  0  0  0  0  0  0
    4.0934    0.3597   -0.5125 C   0  0  0  0  0  0  0  0  0  0  0  0
    2.7227    1.0401   -0.3072 C   0  0  0  0  0  0  0  0  0  0  0  0
   -1.0422    1.5323    1.1764 O   0  0  0  0  0  0  0  0  0  0  0  0
   -6.6440   -1.8722   -3.1920 H   0  0  0  0  0  0  0  0  0  0  0  0
   -5.5113   -0.5334   -3.1787 H   0  0  0  0  0  0  0  0  0  0  0  0
   -5.0462   -2.1158   -2.4803 H   0  0  0  0  0  0  0  0  0  0  0  0
   -8.1864   -2.1462   -1.4658 H   0  0  0  0  0  0  0  0  0  0  0  0
   -9.1135   -1.5198    0.7248 H   0  0  0  0  0  0  0  0  0  0  0  0
   -7.8672    0.0091    2.2211 H   0  0  0  0  0  0  0  0  0  0  0  0
   -5.7033    0.9107    1.5496 H   0  0  0  0  0  0  0  0  0  0  0  0
   -3.3401    0.6127    1.3559 H   0  0  0  0  0  0  0  0  0  0  0  0
   -3.9792    2.1918    0.7914 H   0  0  0  0  0  0  0  0  0  0  0  0
   -1.9013    2.8543   -1.7066 H   0  0  0  0  0  0  0  0  0  0  0  0
    0.7217    3.1558   -1.0650 H   0  0  0  0  0  0  0  0  0  0  0  0
    3.5320    1.9588    2.8872 H   0  0  0  0  0  0  0  0  0  0  0  0
    4.5187    2.2113    1.4544 H   0  0  0  0  0  0  0  0  0  0  0  0
    5.1846    0.1295    2.5478 H   0  0  0  0  0  0  0  0  0  0  0  0
    3.5204   -0.4845    2.5376 H   0  0  0  0  0  0  0  0  0  0  0  0
    5.2367   -2.4064    2.3168 H   0  0  0  0  0  0  0  0  0  0  0  0
    7.2184   -3.8506    2.0061 H   0  0  0  0  0  0  0  0  0  0  0  0
    8.6083   -3.5844   -0.0573 H   0  0  0  0  0  0  0  0  0  0  0  0
    7.9163   -1.8514   -1.7170 H   0  0  0  0  0  0  0  0  0  0  0  0
    4.8677    1.1269   -0.6451 H   0  0  0  0  0  0  0  0  0  0  0  0
    4.0396   -0.2296   -1.4367 H   0  0  0  0  0  0  0  0  0  0  0  0
    2.5862    1.8054   -1.0768 H   0  0  0  0  0  0  0  0  0  0  0  0
    1.9305    0.2899   -0.4180 H   0  0  0  0  0  0  0  0  0  0  0  0
  1  2  1  0
  2  3  2  0
  3  4  1  0
  4  5  2  0
  5  6  1  0
  6  7  2  0
  7  8  1  0
  8  9  2  0
  8 10  2  0
  8 11  1  0
 11 12  1  0
 12 13  2  0
 13 14  1  0
 14 15  2  0
 15 16  1  0
 16 17  2  0
 16 18  1  0
 18 19  1  0
 19 20  1  0
 20 21  1  0
 21 22  1  0
 22 23  2  0
 23 24  1  0
 24 25  2  0
 25 26  1  0
 26 27  2  0
 21 28  1  0
 28 29  1  0
 15 30  1  0
  7  2  1  0
 30 12  1  0
 29 18  1  0
 27 22  1  0
  1 31  1  0
  1 32  1  0
  1 33  1  0
  3 34  1  0
  4 35  1  0
  5 36  1  0
  6 37  1  0
 11 38  1  0
 11 39  1  0
 13 40  1  0
 14 41  1  0
 19 42  1  0
 19 43  1  0
 20 44  1  0
 20 45  1  0
 23 46  1  0
 24 47  1  0
 25 48  1  0
 26 49  1  0
 28 50  1  0
 28 51  1  0
 29 52  1  0
 29 53  1  0
M  END
$$$$
