
     RDKit          3D

 34 37  0  0  0  0  0  0  0  0999 V2000
    0.5688    1.2338    2.2080 O   0  0  0  0  0  0  0  0  0  0  0  0
    0.0913    0.3685    1.4809 C   0  0  0  0  0  0  0  0  0  0  0  0
   -1.2292    0.4356    0.9514 C   0  0  0  0  0  0  0  0  0  0  0  0
   -2.1735    1.4090    1.1206 N   0  0  0  0  0  0  0  0  0  0  0  0
   -3.3211    1.0704    0.4279 C   0  0  0  0  0  0  0  0  0  0  0  0
   -4.5380    1.7518    0.3083 C   0  0  0  0  0  0  0  0  0  0  0  0
   -5.5371    1.1596   -0.4716 C   0  0  0  0  0  0  0  0  0  0  0  0
   -5.3275   -0.0639   -1.1061 C   0  0  0  0  0  0  0  0  0  0  0  0
   -4.1061   -0.7347   -0.9784 C   0  0  0  0  0  0  0  0  0  0  0  0
   -3.0844   -0.1605   -0.1991 C   0  0  0  0  0  0  0  0  0  0  0  0
   -1.7678   -0.5276    0.1493 C   0  0  0  0  0  0  0  0  0  0  0  0
   -1.0679   -1.6743   -0.2293 N   0  0  0  0  0  0  0  0  0  0  0  0
    0.1354   -1.7199    0.2565 C   0  0  0  0  0  0  0  0  0  0  0  0
    0.7525   -0.7869    1.0802 N   0  0  0  0  0  0  0  0  0  0  0  0
    2.1153   -1.0107    1.5278 C   0  0  0  0  0  0  0  0  0  0  0  0
    3.1315   -0.5346    0.5121 C   0  0  0  0  0  0  0  0  0  0  0  0
    3.4861    0.8235    0.4493 C   0  0  0  0  0  0  0  0  0  0  0  0
    4.4084    1.2708   -0.4978 C   0  0  0  0  0  0  0  0  0  0  0  0
    4.9746    0.3640   -1.3844 C   0  0  0  0  0  0  0  0  0  0  0  0
    5.8602    0.7934   -2.2928 F   0  0  0  0  0  0  0  0  0  0  0  0
    4.6352   -0.9828   -1.3431 C   0  0  0  0  0  0  0  0  0  0  0  0
    3.7127   -1.4337   -0.3972 C   0  0  0  0  0  0  0  0  0  0  0  0
   -2.0473    2.2486    1.6702 H   0  0  0  0  0  0  0  0  0  0  0  0
   -4.7078    2.7046    0.7989 H   0  0  0  0  0  0  0  0  0  0  0  0
   -6.4944    1.6637   -0.5851 H   0  0  0  0  0  0  0  0  0  0  0  0
   -6.1190   -0.5041   -1.7076 H   0  0  0  0  0  0  0  0  0  0  0  0
   -3.9422   -1.6875   -1.4730 H   0  0  0  0  0  0  0  0  0  0  0  0
    0.7714   -2.5863    0.0118 H   0  0  0  0  0  0  0  0  0  0  0  0
    2.2553   -2.0835    1.7111 H   0  0  0  0  0  0  0  0  0  0  0  0
    2.2920   -0.5063    2.4855 H   0  0  0  0  0  0  0  0  0  0  0  0
    3.0433    1.5421    1.1380 H   0  0  0  0  0  0  0  0  0  0  0  0
    4.6853    2.3190   -0.5501 H   0  0  0  0  0  0  0  0  0  0  0  0
    5.0896   -1.6710   -2.0489 H   0  0  0  0  0  0  0  0  0  0  0  0
    3.4543   -2.4902   -0.3775 H   0  0  0  0  0  0  0  0  0  0  0  0
  1  2  2  0
  2  3  1  0
  3  4  1  0
  4  5  1  0
  5  6  2  0
  6  7  1  0
  7  8  2  0
  8  9  1  0
  9 10  2  0
 10 11  1  0
 11 12  1  0
 12 13  2  0
 13 14  1  0
 14 15  1  0
 15 16  1  0
 16 17  2  0
 17 18  1  0
 18 19  2  0
 19 20  1  0
 19 21  1  0
 21 22  2  0
 14  2  1  0
 22 16  1  0
 11  3  2  0
 10  5  1  0
  4 23  1  0
  6 24  1  0
  7 25  1  0
  8 26  1  0
  9 27  1  0
 13 28  1  0
 15 29  1  0
 15 30  1  0
 17 31  1  0
 18 32  1  0
 21 33  1  0
 22 34  1  0
M  END
$$$$
