
     RDKit          3D

 44 46  0  0  0  0  0  0  0  0999 V2000
   -2.6976   -0.2032   -4.5054 C   0  0  0  0  0  0  0  0  0  0  0  0
   -1.9430    0.6081   -3.6112 O   0  0  0  0  0  0  0  0  0  0  0  0
   -1.9628    0.2546   -2.2884 C   0  0  0  0  0  0  0  0  0  0  0  0
   -2.4047   -0.9691   -1.7802 C   0  0  0  0  0  0  0  0  0  0  0  0
   -2.3336   -1.2316   -0.4086 C   0  0  0  0  0  0  0  0  0  0  0  0
   -1.8348   -0.2648    0.4646 C   0  0  0  0  0  0  0  0  0  0  0  0
   -1.6987   -0.4198    1.8244 O   0  0  0  0  0  0  0  0  0  0  0  0
   -2.1882   -1.6345    2.3889 C   0  0  0  0  0  0  0  0  0  0  0  0
   -1.4152    0.9837   -0.0411 C   0  0  0  0  0  0  0  0  0  0  0  0
   -0.9469    1.9154    0.9110 N   0  0  0  0  0  0  0  0  0  0  0  0
   -0.5579    3.2257    0.7151 C   0  0  0  0  0  0  0  0  0  0  0  0
   -0.6427    3.8604   -0.3303 O   0  0  0  0  0  0  0  0  0  0  0  0
    0.0390    3.8530    1.9670 C   0  0  0  0  0  0  0  0  0  0  0  0
    1.8551    3.7723    1.9369 S   0  0  0  0  0  0  0  0  0  0  0  0
    2.0468    2.0747    1.6526 C   0  0  0  0  0  0  0  0  0  0  0  0
    2.3098    1.5912    0.4847 N   0  0  0  0  0  0  0  0  0  0  0  0
    2.3084    0.2054    0.5485 N   0  0  0  0  0  0  0  0  0  0  0  0
    3.1907   -0.4010   -0.4464 C   0  0  0  0  0  0  0  0  0  0  0  0
    2.8464   -1.8424   -0.7800 C   0  0  0  0  0  0  0  0  0  0  0  0
    3.0144   -2.7506    0.4232 C   0  0  0  0  0  0  0  0  0  0  0  0
    1.8318   -2.5742    1.3422 C   0  0  0  0  0  0  0  0  0  0  0  0
    0.8795   -3.3487    1.2783 O   0  0  0  0  0  0  0  0  0  0  0  0
    1.8888   -1.5464    2.2383 N   0  0  0  0  0  0  0  0  0  0  0  0
    2.0446   -0.3534    1.7891 C   0  0  0  0  0  0  0  0  0  0  0  0
    1.8651    0.9512    2.9692 S   0  0  0  0  0  0  0  0  0  0  0  0
   -1.4648    1.2288   -1.4143 C   0  0  0  0  0  0  0  0  0  0  0  0
   -3.7561   -0.2142   -4.2206 H   0  0  0  0  0  0  0  0  0  0  0  0
   -2.6246    0.2420   -5.5073 H   0  0  0  0  0  0  0  0  0  0  0  0
   -2.2909   -1.2211   -4.5660 H   0  0  0  0  0  0  0  0  0  0  0  0
   -2.7890   -1.7516   -2.4265 H   0  0  0  0  0  0  0  0  0  0  0  0
   -2.6643   -2.2026   -0.0597 H   0  0  0  0  0  0  0  0  0  0  0  0
   -2.0254   -1.5912    3.4710 H   0  0  0  0  0  0  0  0  0  0  0  0
   -3.2669   -1.7323    2.2174 H   0  0  0  0  0  0  0  0  0  0  0  0
   -1.6425   -2.5042    2.0066 H   0  0  0  0  0  0  0  0  0  0  0  0
   -0.9348    1.5364    1.8505 H   0  0  0  0  0  0  0  0  0  0  0  0
   -0.3352    3.3578    2.8724 H   0  0  0  0  0  0  0  0  0  0  0  0
   -0.2811    4.9024    2.0195 H   0  0  0  0  0  0  0  0  0  0  0  0
    4.2257   -0.3344   -0.0923 H   0  0  0  0  0  0  0  0  0  0  0  0
    3.1390    0.1821   -1.3746 H   0  0  0  0  0  0  0  0  0  0  0  0
    3.5219   -2.1824   -1.5744 H   0  0  0  0  0  0  0  0  0  0  0  0
    1.8251   -1.9022   -1.1732 H   0  0  0  0  0  0  0  0  0  0  0  0
    3.9473   -2.5627    0.9646 H   0  0  0  0  0  0  0  0  0  0  0  0
    3.0357   -3.7999    0.1017 H   0  0  0  0  0  0  0  0  0  0  0  0
   -1.1132    2.1734   -1.8371 H   0  0  0  0  0  0  0  0  0  0  0  0
  1  2  1  0
  2  3  1  0
  3  4  2  0
  4  5  1  0
  5  6  2  0
  6  7  1  0
  7  8  1  0
  6  9  1  0
  9 10  1  0
 10 11  1  0
 11 12  2  0
 11 13  1  0
 13 14  1  0
 14 15  1  0
 15 16  2  0
 16 17  1  0
 17 18  1  0
 18 19  1  0
 19 20  1  0
 20 21  1  0
 21 22  2  0
 21 23  1  0
 23 24  2  0
 24 25  1  0
  9 26  2  0
 26  3  1  0
 25 15  1  0
 24 17  1  0
  1 27  1  0
  1 28  1  0
  1 29  1  0
  4 30  1  0
  5 31  1  0
  8 32  1  0
  8 33  1  0
  8 34  1  0
 10 35  1  0
 13 36  1  0
 13 37  1  0
 18 38  1  0
 18 39  1  0
 19 40  1  0
 19 41  1  0
 20 42  1  0
 20 43  1  0
 26 44  1  0
M  END
$$$$
