
     RDKit          3D

 55 58  0  0  0  0  0  0  0  0999 V2000
   -3.3850    5.4269    1.7751 C   0  0  0  0  0  0  0  0  0  0  0  0
   -1.8371    5.8304    0.9397 S   0  0  0  0  0  0  0  0  0  0  0  0
   -1.3531    4.2573    0.3845 C   0  0  0  0  0  0  0  0  0  0  0  0
   -2.0705    3.1990    0.5425 N   0  0  0  0  0  0  0  0  0  0  0  0
   -1.5624    2.0162    0.0633 C   0  0  0  0  0  0  0  0  0  0  0  0
   -0.3754    1.9337   -0.5760 C   0  0  0  0  0  0  0  0  0  0  0  0
    0.3687    3.1791   -0.8287 C   0  0  0  0  0  0  0  0  0  0  0  0
    1.3588    3.2317   -1.5478 O   0  0  0  0  0  0  0  0  0  0  0  0
   -0.1496    4.2862   -0.2352 N   0  0  0  0  0  0  0  0  0  0  0  0
    0.1998    0.6211   -1.0787 C   0  0  0  0  0  0  0  0  0  0  0  0
    1.4315    0.2225   -0.2624 C   0  0  0  0  0  0  0  0  0  0  0  0
    1.3587   -0.0338    1.1112 C   0  0  0  0  0  0  0  0  0  0  0  0
    2.5037   -0.3948    1.8377 C   0  0  0  0  0  0  0  0  0  0  0  0
    3.7668   -0.5297    1.2363 C   0  0  0  0  0  0  0  0  0  0  0  0
    4.9095   -0.8765    1.9704 N   0  0  0  0  0  0  0  0  0  0  0  0
    6.1071   -1.2973    1.2453 C   0  0  0  0  0  0  0  0  0  0  0  0
    4.7437   -1.4541    3.3021 C   0  0  0  0  0  0  0  0  0  0  0  0
    3.8168   -0.2494   -0.1402 C   0  0  0  0  0  0  0  0  0  0  0  0
    2.6793    0.1126   -0.8782 C   0  0  0  0  0  0  0  0  0  0  0  0
   -0.8408   -0.4904   -1.0676 C   0  0  0  0  0  0  0  0  0  0  0  0
   -2.0132   -0.3437   -0.4170 C   0  0  0  0  0  0  0  0  0  0  0  0
   -3.0705   -1.4201   -0.3646 C   0  0  0  0  0  0  0  0  0  0  0  0
   -2.9615   -2.4608   -1.4999 C   0  0  0  0  0  0  0  0  0  0  0  0
   -3.8350   -3.6797   -1.1537 C   0  0  0  0  0  0  0  0  0  0  0  0
   -3.4737   -1.8672   -2.8293 C   0  0  0  0  0  0  0  0  0  0  0  0
   -1.4986   -2.9109   -1.6434 C   0  0  0  0  0  0  0  0  0  0  0  0
   -0.5551   -1.7401   -1.8211 C   0  0  0  0  0  0  0  0  0  0  0  0
    0.4293   -1.8242   -2.5523 O   0  0  0  0  0  0  0  0  0  0  0  0
   -2.2940    0.8513    0.2198 N   0  0  0  0  0  0  0  0  0  0  0  0
   -4.1059    5.0024    1.0712 H   0  0  0  0  0  0  0  0  0  0  0  0
   -3.2113    4.7213    2.5922 H   0  0  0  0  0  0  0  0  0  0  0  0
   -3.8139    6.3404    2.1959 H   0  0  0  0  0  0  0  0  0  0  0  0
    0.3182    5.1670   -0.3806 H   0  0  0  0  0  0  0  0  0  0  0  0
    0.4892    0.7783   -2.1275 H   0  0  0  0  0  0  0  0  0  0  0  0
    0.4118    0.0479    1.6406 H   0  0  0  0  0  0  0  0  0  0  0  0
    2.3712   -0.5647    2.9014 H   0  0  0  0  0  0  0  0  0  0  0  0
    5.9064   -2.1822    0.6312 H   0  0  0  0  0  0  0  0  0  0  0  0
    6.9194   -1.5520    1.9355 H   0  0  0  0  0  0  0  0  0  0  0  0
    6.4940   -0.4898    0.6148 H   0  0  0  0  0  0  0  0  0  0  0  0
    5.7129   -1.6904    3.7559 H   0  0  0  0  0  0  0  0  0  0  0  0
    4.2597   -0.7469    3.9840 H   0  0  0  0  0  0  0  0  0  0  0  0
    4.1636   -2.3826    3.2604 H   0  0  0  0  0  0  0  0  0  0  0  0
    4.7516   -0.3016   -0.6894 H   0  0  0  0  0  0  0  0  0  0  0  0
    2.7856    0.3100   -1.9434 H   0  0  0  0  0  0  0  0  0  0  0  0
   -4.0680   -0.9617   -0.3927 H   0  0  0  0  0  0  0  0  0  0  0  0
   -2.9853   -1.9169    0.6115 H   0  0  0  0  0  0  0  0  0  0  0  0
   -4.8852   -3.3917   -1.0319 H   0  0  0  0  0  0  0  0  0  0  0  0
   -3.5086   -4.1502   -0.2194 H   0  0  0  0  0  0  0  0  0  0  0  0
   -3.7851   -4.4391   -1.9423 H   0  0  0  0  0  0  0  0  0  0  0  0
   -4.5253   -1.5697   -2.7459 H   0  0  0  0  0  0  0  0  0  0  0  0
   -2.9075   -0.9821   -3.1365 H   0  0  0  0  0  0  0  0  0  0  0  0
   -3.4018   -2.6014   -3.6399 H   0  0  0  0  0  0  0  0  0  0  0  0
   -1.1660   -3.4669   -0.7580 H   0  0  0  0  0  0  0  0  0  0  0  0
   -1.3914   -3.5741   -2.5105 H   0  0  0  0  0  0  0  0  0  0  0  0
   -3.2265    1.0016    0.5918 H   0  0  0  0  0  0  0  0  0  0  0  0
  1  2  1  0
  2  3  1  0
  3  4  2  0
  4  5  1  0
  5  6  2  0
  6  7  1  0
  7  8  2  0
  7  9  1  0
  6 10  1  0
 10 11  1  0
 11 12  2  0
 12 13  1  0
 13 14  2  0
 14 15  1  0
 15 16  1  0
 15 17  1  0
 14 18  1  0
 18 19  2  0
 10 20  1  0
 20 21  2  0
 21 22  1  0
 22 23  1  0
 23 24  1  0
 23 25  1  0
 23 26  1  0
 26 27  1  0
 27 28  2  0
 21 29  1  0
  9  3  1  0
 19 11  1  0
 27 20  1  0
 29  5  1  0
  1 30  1  0
  1 31  1  0
  1 32  1  0
  9 33  1  0
 10 34  1  0
 12 35  1  0
 13 36  1  0
 16 37  1  0
 16 38  1  0
 16 39  1  0
 17 40  1  0
 17 41  1  0
 17 42  1  0
 18 43  1  0
 19 44  1  0
 22 45  1  0
 22 46  1  0
 24 47  1  0
 24 48  1  0
 24 49  1  0
 25 50  1  0
 25 51  1  0
 25 52  1  0
 26 53  1  0
 26 54  1  0
 29 55  1  0
M  END
$$$$
