
     RDKit          3D

 47 49  0  0  0  0  0  0  0  0999 V2000
    7.6632   -0.0162   -0.2164 C   0  0  0  0  0  0  0  0  0  0  0  0
    6.4072    0.4688   -0.6698 O   0  0  0  0  0  0  0  0  0  0  0  0
    5.2834   -0.1272   -0.1595 C   0  0  0  0  0  0  0  0  0  0  0  0
    5.2793   -1.1387    0.8136 C   0  0  0  0  0  0  0  0  0  0  0  0
    4.0843   -1.6891    1.2792 C   0  0  0  0  0  0  0  0  0  0  0  0
    2.8505   -1.2536    0.7942 C   0  0  0  0  0  0  0  0  0  0  0  0
    2.8510   -0.2427   -0.1773 C   0  0  0  0  0  0  0  0  0  0  0  0
    4.0366    0.3237   -0.6570 C   0  0  0  0  0  0  0  0  0  0  0  0
    3.6645    1.3075   -1.6199 C   0  0  0  0  0  0  0  0  0  0  0  0
    2.2920    1.3223   -1.7071 C   0  0  0  0  0  0  0  0  0  0  0  0
    1.8095    0.3858   -0.8310 N   0  0  0  0  0  0  0  0  0  0  0  0
    0.3984    0.1023   -0.6304 C   0  0  0  0  0  0  0  0  0  0  0  0
   -0.1614    0.8378    0.5862 C   0  0  0  0  0  0  0  0  0  0  0  0
   -1.5760    0.5788    0.7927 N   0  0  0  0  0  0  0  0  0  0  0  0
   -2.0198   -0.6291    1.2906 C   0  0  0  0  0  0  0  0  0  0  0  0
   -1.2395   -1.5044    1.6656 O   0  0  0  0  0  0  0  0  0  0  0  0
   -3.5223   -0.8040    1.4221 C   0  0  0  0  0  0  0  0  0  0  0  0
   -4.2849   -0.1579    0.3578 N   0  0  0  0  0  0  0  0  0  0  0  0
   -4.3873   -0.6249   -0.9389 C   0  0  0  0  0  0  0  0  0  0  0  0
   -3.7536   -1.8861   -1.4147 C   0  0  0  0  0  0  0  0  0  0  0  0
   -5.1561    0.2783   -1.6449 C   0  0  0  0  0  0  0  0  0  0  0  0
   -5.5334    1.3090   -0.7593 C   0  0  0  0  0  0  0  0  0  0  0  0
   -4.9902    1.0247    0.4780 C   0  0  0  0  0  0  0  0  0  0  0  0
   -5.1052    1.7985    1.7448 C   0  0  0  0  0  0  0  0  0  0  0  0
    8.4455    0.5436   -0.7380 H   0  0  0  0  0  0  0  0  0  0  0  0
    7.7920   -1.0751   -0.4637 H   0  0  0  0  0  0  0  0  0  0  0  0
    7.7896    0.1591    0.8570 H   0  0  0  0  0  0  0  0  0  0  0  0
    6.2035   -1.5214    1.2340 H   0  0  0  0  0  0  0  0  0  0  0  0
    4.1122   -2.4717    2.0343 H   0  0  0  0  0  0  0  0  0  0  0  0
    1.9272   -1.6894    1.1662 H   0  0  0  0  0  0  0  0  0  0  0  0
    4.3447    1.9315   -2.1847 H   0  0  0  0  0  0  0  0  0  0  0  0
    1.6304    1.9205   -2.3197 H   0  0  0  0  0  0  0  0  0  0  0  0
    0.2842   -0.9836   -0.5418 H   0  0  0  0  0  0  0  0  0  0  0  0
   -0.1374    0.4016   -1.5394 H   0  0  0  0  0  0  0  0  0  0  0  0
    0.3764    0.5469    1.4959 H   0  0  0  0  0  0  0  0  0  0  0  0
   -0.0480    1.9211    0.4685 H   0  0  0  0  0  0  0  0  0  0  0  0
   -2.2441    1.2007    0.3473 H   0  0  0  0  0  0  0  0  0  0  0  0
   -3.7688   -1.8705    1.3932 H   0  0  0  0  0  0  0  0  0  0  0  0
   -3.8421   -0.4099    2.3901 H   0  0  0  0  0  0  0  0  0  0  0  0
   -3.9892   -2.0654   -2.4690 H   0  0  0  0  0  0  0  0  0  0  0  0
   -2.6646   -1.8338   -1.3213 H   0  0  0  0  0  0  0  0  0  0  0  0
   -4.1173   -2.7445   -0.8417 H   0  0  0  0  0  0  0  0  0  0  0  0
   -5.4236    0.1970   -2.6911 H   0  0  0  0  0  0  0  0  0  0  0  0
   -6.1466    2.1696   -0.9967 H   0  0  0  0  0  0  0  0  0  0  0  0
   -5.6582    2.7298    1.5837 H   0  0  0  0  0  0  0  0  0  0  0  0
   -5.6400    1.2187    2.5036 H   0  0  0  0  0  0  0  0  0  0  0  0
   -4.1157    2.0615    2.1319 H   0  0  0  0  0  0  0  0  0  0  0  0
  1  2  1  0
  2  3  1  0
  3  4  2  0
  4  5  1  0
  5  6  2  0
  6  7  1  0
  7  8  2  0
  8  9  1  0
  9 10  2  0
 10 11  1  0
 11 12  1  0
 12 13  1  0
 13 14  1  0
 14 15  1  0
 15 16  2  0
 15 17  1  0
 17 18  1  0
 18 19  1  0
 19 20  1  0
 19 21  2  0
 21 22  1  0
 22 23  2  0
 23 24  1  0
  8  3  1  0
 23 18  1  0
 11  7  1  0
  1 25  1  0
  1 26  1  0
  1 27  1  0
  4 28  1  0
  5 29  1  0
  6 30  1  0
  9 31  1  0
 10 32  1  0
 12 33  1  0
 12 34  1  0
 13 35  1  0
 13 36  1  0
 14 37  1  0
 17 38  1  0
 17 39  1  0
 20 40  1  0
 20 41  1  0
 20 42  1  0
 21 43  1  0
 22 44  1  0
 24 45  1  0
 24 46  1  0
 24 47  1  0
M  END
$$$$
