
     RDKit          3D

 45 47  0  0  0  0  0  0  0  0999 V2000
    4.3044   -0.4760    3.8900 C   0  0  0  0  0  0  0  0  0  0  0  0
    3.7022   -0.7661    2.5268 C   0  0  0  0  0  0  0  0  0  0  0  0
    3.3916    0.4821    1.9089 O   0  0  0  0  0  0  0  0  0  0  0  0
    2.7674    0.4281    0.6929 C   0  0  0  0  0  0  0  0  0  0  0  0
    2.3627    1.6655    0.1878 C   0  0  0  0  0  0  0  0  0  0  0  0
    1.6924    1.7530   -1.0348 C   0  0  0  0  0  0  0  0  0  0  0  0
    1.4270    0.5970   -1.7781 C   0  0  0  0  0  0  0  0  0  0  0  0
    0.6356    0.6645   -3.0573 C   0  0  0  0  0  0  0  0  0  0  0  0
   -0.7722    0.5157   -2.7647 N   0  0  0  0  0  0  0  0  0  0  0  0
   -1.5364   -0.4904   -3.3042 C   0  0  0  0  0  0  0  0  0  0  0  0
   -1.1380   -1.2812   -4.1520 O   0  0  0  0  0  0  0  0  0  0  0  0
   -2.9416   -0.5494   -2.7528 C   0  0  0  0  0  0  0  0  0  0  0  0
   -3.0391   -1.4919   -1.5579 C   0  0  0  0  0  0  0  0  0  0  0  0
   -2.2781   -1.0797   -0.4013 N   0  0  0  0  0  0  0  0  0  0  0  0
   -1.1716   -1.7374    0.1097 C   0  0  0  0  0  0  0  0  0  0  0  0
   -0.6790   -2.7686   -0.3274 O   0  0  0  0  0  0  0  0  0  0  0  0
   -0.6636   -1.0710    1.2328 O   0  0  0  0  0  0  0  0  0  0  0  0
   -1.5255    0.0042    1.3585 C   0  0  0  0  0  0  0  0  0  0  0  0
   -1.4389    0.9830    2.3251 C   0  0  0  0  0  0  0  0  0  0  0  0
   -2.4105    1.9872    2.3102 C   0  0  0  0  0  0  0  0  0  0  0  0
   -3.4350    1.9834    1.3427 C   0  0  0  0  0  0  0  0  0  0  0  0
   -3.4986    0.9813    0.3688 C   0  0  0  0  0  0  0  0  0  0  0  0
   -2.5204    0.0113    0.4011 C   0  0  0  0  0  0  0  0  0  0  0  0
    1.8450   -0.6408   -1.2739 C   0  0  0  0  0  0  0  0  0  0  0  0
    2.5130   -0.7251   -0.0478 C   0  0  0  0  0  0  0  0  0  0  0  0
    3.6039    0.0965    4.5070 H   0  0  0  0  0  0  0  0  0  0  0  0
    5.2106    0.1307    3.7899 H   0  0  0  0  0  0  0  0  0  0  0  0
    4.5562   -1.4044    4.4105 H   0  0  0  0  0  0  0  0  0  0  0  0
    2.7930   -1.3650    2.6584 H   0  0  0  0  0  0  0  0  0  0  0  0
    4.4332   -1.3157    1.9227 H   0  0  0  0  0  0  0  0  0  0  0  0
    2.5630    2.5687    0.7585 H   0  0  0  0  0  0  0  0  0  0  0  0
    1.3740    2.7280   -1.3954 H   0  0  0  0  0  0  0  0  0  0  0  0
    0.9802   -0.0949   -3.7672 H   0  0  0  0  0  0  0  0  0  0  0  0
    0.7688    1.6415   -3.5344 H   0  0  0  0  0  0  0  0  0  0  0  0
   -1.1353    1.0463   -1.9842 H   0  0  0  0  0  0  0  0  0  0  0  0
   -3.2784    0.4617   -2.5013 H   0  0  0  0  0  0  0  0  0  0  0  0
   -3.5988   -0.9019   -3.5568 H   0  0  0  0  0  0  0  0  0  0  0  0
   -4.0867   -1.5868   -1.2488 H   0  0  0  0  0  0  0  0  0  0  0  0
   -2.7032   -2.4924   -1.8557 H   0  0  0  0  0  0  0  0  0  0  0  0
   -0.6469    0.9716    3.0657 H   0  0  0  0  0  0  0  0  0  0  0  0
   -2.3795    2.7773    3.0579 H   0  0  0  0  0  0  0  0  0  0  0  0
   -4.1863    2.7706    1.3582 H   0  0  0  0  0  0  0  0  0  0  0  0
   -4.2942    0.9785   -0.3660 H   0  0  0  0  0  0  0  0  0  0  0  0
    1.6287   -1.5571   -1.8234 H   0  0  0  0  0  0  0  0  0  0  0  0
    2.8048   -1.7104    0.3009 H   0  0  0  0  0  0  0  0  0  0  0  0
  1  2  1  0
  2  3  1  0
  3  4  1  0
  4  5  2  0
  5  6  1  0
  6  7  2  0
  7  8  1  0
  8  9  1  0
  9 10  1  0
 10 11  2  0
 10 12  1  0
 12 13  1  0
 13 14  1  0
 14 15  1  0
 15 16  2  0
 15 17  1  0
 17 18  1  0
 18 19  2  0
 19 20  1  0
 20 21  2  0
 21 22  1  0
 22 23  2  0
  7 24  1  0
 24 25  2  0
 25  4  1  0
 23 14  1  0
 23 18  1  0
  1 26  1  0
  1 27  1  0
  1 28  1  0
  2 29  1  0
  2 30  1  0
  5 31  1  0
  6 32  1  0
  8 33  1  0
  8 34  1  0
  9 35  1  0
 12 36  1  0
 12 37  1  0
 13 38  1  0
 13 39  1  0
 19 40  1  0
 20 41  1  0
 21 42  1  0
 22 43  1  0
 24 44  1  0
 25 45  1  0
M  END
$$$$
