
     RDKit          3D

 29 30  0  0  0  0  0  0  0  0999 V2000
   -2.5151    2.4404   -0.2125 C   0  0  0  0  0  0  0  0  0  0  0  0
   -2.2806    1.1799   -1.4932 S   0  0  0  0  0  0  0  0  0  0  0  0
   -2.5683   -0.2789   -0.4853 C   0  0  0  0  0  0  0  0  0  0  0  0
   -3.8751   -0.7790   -0.4108 C   0  0  0  0  0  0  0  0  0  0  0  0
   -4.1537   -1.9029    0.3645 C   0  0  0  0  0  0  0  0  0  0  0  0
   -3.1280   -2.5321    1.0643 C   0  0  0  0  0  0  0  0  0  0  0  0
   -1.8191   -2.0453    0.9891 C   0  0  0  0  0  0  0  0  0  0  0  0
   -1.5226   -0.9209    0.2134 C   0  0  0  0  0  0  0  0  0  0  0  0
   -0.2205   -0.3917    0.0911 N   0  0  0  0  0  0  0  0  0  0  0  0
    0.9539   -0.8216    0.6742 C   0  0  0  0  0  0  0  0  0  0  0  0
    1.0812   -1.7763    1.4333 O   0  0  0  0  0  0  0  0  0  0  0  0
    2.1089    0.0040    0.2995 C   0  0  0  0  0  0  0  0  0  0  0  0
    3.4587   -0.1734    0.6967 C   0  0  0  0  0  0  0  0  0  0  0  0
    4.1372    0.8502    0.0860 C   0  0  0  0  0  0  0  0  0  0  0  0
    5.5467    1.2765    0.0531 C   0  0  0  0  0  0  0  0  0  0  0  0
    3.2613    1.6011   -0.6321 O   0  0  0  0  0  0  0  0  0  0  0  0
    1.9872    1.0781   -0.5028 N   0  0  0  0  0  0  0  0  0  0  0  0
   -1.7845    2.3138    0.5910 H   0  0  0  0  0  0  0  0  0  0  0  0
   -3.5248    2.3820    0.2032 H   0  0  0  0  0  0  0  0  0  0  0  0
   -2.3775    3.4307   -0.6545 H   0  0  0  0  0  0  0  0  0  0  0  0
   -4.6831   -0.2974   -0.9565 H   0  0  0  0  0  0  0  0  0  0  0  0
   -5.1684   -2.2886    0.4207 H   0  0  0  0  0  0  0  0  0  0  0  0
   -3.3413   -3.4103    1.6694 H   0  0  0  0  0  0  0  0  0  0  0  0
   -1.0524   -2.5741    1.5466 H   0  0  0  0  0  0  0  0  0  0  0  0
   -0.1297    0.4133   -0.5277 H   0  0  0  0  0  0  0  0  0  0  0  0
    3.8602   -0.9451    1.3372 H   0  0  0  0  0  0  0  0  0  0  0  0
    5.6494    2.2928    0.4457 H   0  0  0  0  0  0  0  0  0  0  0  0
    5.9281    1.2619   -0.9725 H   0  0  0  0  0  0  0  0  0  0  0  0
    6.1720    0.6130    0.6583 H   0  0  0  0  0  0  0  0  0  0  0  0
  1  2  1  0
  2  3  1  0
  3  4  2  0
  4  5  1  0
  5  6  2  0
  6  7  1  0
  7  8  2  0
  8  9  1  0
  9 10  1  0
 10 11  2  0
 10 12  1  0
 12 13  1  0
 13 14  2  0
 14 15  1  0
 14 16  1  0
 16 17  1  0
  8  3  1  0
 17 12  2  0
  1 18  1  0
  1 19  1  0
  1 20  1  0
  4 21  1  0
  5 22  1  0
  6 23  1  0
  7 24  1  0
  9 25  1  0
 13 26  1  0
 15 27  1  0
 15 28  1  0
 15 29  1  0
M  END
$$$$
