
     RDKit          3D

 39 41  0  0  0  0  0  0  0  0999 V2000
   -3.1091    1.9254    0.6244 C   0  0  0  0  0  0  0  0  0  0  0  0
   -3.9873    0.7234    0.8451 C   0  0  0  0  0  0  0  0  0  0  0  0
   -5.3465    0.9014    1.1430 C   0  0  0  0  0  0  0  0  0  0  0  0
   -6.1763   -0.1994    1.3475 C   0  0  0  0  0  0  0  0  0  0  0  0
   -5.6558   -1.4867    1.2545 C   0  0  0  0  0  0  0  0  0  0  0  0
   -4.3043   -1.6782    0.9565 C   0  0  0  0  0  0  0  0  0  0  0  0
   -3.4645   -0.5796    0.7505 C   0  0  0  0  0  0  0  0  0  0  0  0
   -2.1306   -0.6576    0.4529 O   0  0  0  0  0  0  0  0  0  0  0  0
   -1.5476   -1.9528    0.3567 C   0  0  0  0  0  0  0  0  0  0  0  0
   -0.0569   -1.8324    0.0299 C   0  0  0  0  0  0  0  0  0  0  0  0
    0.6504   -2.8272   -0.1159 O   0  0  0  0  0  0  0  0  0  0  0  0
    0.3885   -0.5377   -0.0764 N   0  0  0  0  0  0  0  0  0  0  0  0
    1.6399   -0.0011   -0.3520 C   0  0  0  0  0  0  0  0  0  0  0  0
    2.7946   -0.6519   -0.5959 C   0  0  0  0  0  0  0  0  0  0  0  0
    2.9638   -2.0191   -0.6204 O   0  0  0  0  0  0  0  0  0  0  0  0
    4.0270    0.0977   -0.8690 C   0  0  0  0  0  0  0  0  0  0  0  0
    5.2562   -0.5238   -1.1300 C   0  0  0  0  0  0  0  0  0  0  0  0
    6.4038    0.2353   -1.3845 C   0  0  0  0  0  0  0  0  0  0  0  0
    6.3375    1.6277   -1.3814 C   0  0  0  0  0  0  0  0  0  0  0  0
    5.1243    2.2600   -1.1244 C   0  0  0  0  0  0  0  0  0  0  0  0
    3.9897    1.4870   -0.8726 C   0  0  0  0  0  0  0  0  0  0  0  0
    2.7992    2.1806   -0.6207 O   0  0  0  0  0  0  0  0  0  0  0  0
    1.6261    1.5002   -0.3622 C   0  0  0  0  0  0  0  0  0  0  0  0
    0.5735    2.1007   -0.1407 O   0  0  0  0  0  0  0  0  0  0  0  0
   -2.2747    1.9215    1.3333 H   0  0  0  0  0  0  0  0  0  0  0  0
   -3.6617    2.8595    0.7702 H   0  0  0  0  0  0  0  0  0  0  0  0
   -2.7180    1.9249   -0.3981 H   0  0  0  0  0  0  0  0  0  0  0  0
   -5.7668    1.9021    1.2173 H   0  0  0  0  0  0  0  0  0  0  0  0
   -7.2279   -0.0518    1.5789 H   0  0  0  0  0  0  0  0  0  0  0  0
   -6.3035   -2.3453    1.4136 H   0  0  0  0  0  0  0  0  0  0  0  0
   -3.9438   -2.6994    0.8924 H   0  0  0  0  0  0  0  0  0  0  0  0
   -1.6281   -2.4802    1.3138 H   0  0  0  0  0  0  0  0  0  0  0  0
   -2.0134   -2.5213   -0.4560 H   0  0  0  0  0  0  0  0  0  0  0  0
   -0.3379    0.1716    0.0735 H   0  0  0  0  0  0  0  0  0  0  0  0
    2.1079   -2.4603   -0.4329 H   0  0  0  0  0  0  0  0  0  0  0  0
    5.3325   -1.6096   -1.1376 H   0  0  0  0  0  0  0  0  0  0  0  0
    7.3484   -0.2648   -1.5847 H   0  0  0  0  0  0  0  0  0  0  0  0
    7.2296    2.2166   -1.5789 H   0  0  0  0  0  0  0  0  0  0  0  0
    5.0618    3.3445   -1.1199 H   0  0  0  0  0  0  0  0  0  0  0  0
  1  2  1  0
  2  3  2  0
  3  4  1  0
  4  5  2  0
  5  6  1  0
  6  7  2  0
  7  8  1  0
  8  9  1  0
  9 10  1  0
 10 11  2  0
 10 12  1  0
 12 13  1  0
 13 14  2  0
 14 15  1  0
 14 16  1  0
 16 17  2  0
 17 18  1  0
 18 19  2  0
 19 20  1  0
 20 21  2  0
 21 22  1  0
 22 23  1  0
 23 24  2  0
  7  2  1  0
 23 13  1  0
 21 16  1  0
  1 25  1  0
  1 26  1  0
  1 27  1  0
  3 28  1  0
  4 29  1  0
  5 30  1  0
  6 31  1  0
  9 32  1  0
  9 33  1  0
 12 34  1  0
 15 35  1  0
 17 36  1  0
 18 37  1  0
 19 38  1  0
 20 39  1  0
M  END
$$$$
