
     RDKit          3D

 42 44  0  0  0  0  0  0  0  0999 V2000
    5.5007    2.1396    1.2273 C   0  0  0  0  0  0  0  0  0  0  0  0
    6.0067    1.3435    0.1629 O   0  0  0  0  0  0  0  0  0  0  0  0
    5.1259    0.4967   -0.4526 C   0  0  0  0  0  0  0  0  0  0  0  0
    5.6803   -0.2740   -1.4750 C   0  0  0  0  0  0  0  0  0  0  0  0
    4.8941   -1.1788   -2.1844 C   0  0  0  0  0  0  0  0  0  0  0  0
    3.5407   -1.3171   -1.8734 C   0  0  0  0  0  0  0  0  0  0  0  0
    2.9576   -0.5533   -0.8510 C   0  0  0  0  0  0  0  0  0  0  0  0
    1.5397   -0.7057   -0.5374 C   0  0  0  0  0  0  0  0  0  0  0  0
    0.5131   -1.4785   -1.0258 C   0  0  0  0  0  0  0  0  0  0  0  0
   -0.6281   -1.1073   -0.2667 C   0  0  0  0  0  0  0  0  0  0  0  0
   -1.9626   -1.6994   -0.3623 C   0  0  0  0  0  0  0  0  0  0  0  0
   -2.0735   -2.8960   -0.6406 O   0  0  0  0  0  0  0  0  0  0  0  0
   -3.0966   -0.9237   -0.1039 N   0  0  0  0  0  0  0  0  0  0  0  0
   -4.2526   -1.6313    0.4449 C   0  0  0  0  0  0  0  0  0  0  0  0
   -5.0414   -0.7640    1.4382 C   0  0  0  0  0  0  0  0  0  0  0  0
   -4.1272    0.2163    2.1793 C   0  0  0  0  0  0  0  0  0  0  0  0
   -3.3510    1.1338    1.2170 C   0  0  0  0  0  0  0  0  0  0  0  0
   -3.2637    0.5346   -0.1913 C   0  0  0  0  0  0  0  0  0  0  0  0
   -2.3626    1.3117   -1.1477 C   0  0  0  0  0  0  0  0  0  0  0  0
   -0.2927   -0.2035    0.6679 N   0  0  0  0  0  0  0  0  0  0  0  0
    1.0486    0.0637    0.4762 O   0  0  0  0  0  0  0  0  0  0  0  0
    3.7694    0.3547   -0.1455 C   0  0  0  0  0  0  0  0  0  0  0  0
    5.1354    1.5147    2.0490 H   0  0  0  0  0  0  0  0  0  0  0  0
    4.7226    2.8236    0.8728 H   0  0  0  0  0  0  0  0  0  0  0  0
    6.3262    2.7461    1.6124 H   0  0  0  0  0  0  0  0  0  0  0  0
    6.7348   -0.1678   -1.7184 H   0  0  0  0  0  0  0  0  0  0  0  0
    5.3361   -1.7757   -2.9780 H   0  0  0  0  0  0  0  0  0  0  0  0
    2.9511   -2.0319   -2.4424 H   0  0  0  0  0  0  0  0  0  0  0  0
    0.5550   -2.2148   -1.8141 H   0  0  0  0  0  0  0  0  0  0  0  0
   -4.8956   -1.9344   -0.3890 H   0  0  0  0  0  0  0  0  0  0  0  0
   -3.9162   -2.5436    0.9516 H   0  0  0  0  0  0  0  0  0  0  0  0
   -5.5747   -1.4060    2.1481 H   0  0  0  0  0  0  0  0  0  0  0  0
   -5.8097   -0.1958    0.8985 H   0  0  0  0  0  0  0  0  0  0  0  0
   -3.4104   -0.3558    2.7822 H   0  0  0  0  0  0  0  0  0  0  0  0
   -4.7101    0.8240    2.8805 H   0  0  0  0  0  0  0  0  0  0  0  0
   -2.3556    1.3225    1.6338 H   0  0  0  0  0  0  0  0  0  0  0  0
   -3.8497    2.1093    1.1590 H   0  0  0  0  0  0  0  0  0  0  0  0
   -4.2591    0.6514   -0.6469 H   0  0  0  0  0  0  0  0  0  0  0  0
   -1.3769    1.5277   -0.7332 H   0  0  0  0  0  0  0  0  0  0  0  0
   -2.8146    2.2848   -1.3729 H   0  0  0  0  0  0  0  0  0  0  0  0
   -2.2365    0.7781   -2.0954 H   0  0  0  0  0  0  0  0  0  0  0  0
    3.3233    0.9477    0.6467 H   0  0  0  0  0  0  0  0  0  0  0  0
  1  2  1  0
  2  3  1  0
  3  4  2  0
  4  5  1  0
  5  6  2  0
  6  7  1  0
  7  8  1  0
  8  9  2  0
  9 10  1  0
 10 11  1  0
 11 12  2  0
 11 13  1  0
 13 14  1  0
 14 15  1  0
 15 16  1  0
 16 17  1  0
 17 18  1  0
 18 19  1  0
 10 20  2  0
 20 21  1  0
  7 22  2  0
 22  3  1  0
 21  8  1  0
 18 13  1  0
  1 23  1  0
  1 24  1  0
  1 25  1  0
  4 26  1  0
  5 27  1  0
  6 28  1  0
  9 29  1  0
 14 30  1  0
 14 31  1  0
 15 32  1  0
 15 33  1  0
 16 34  1  0
 16 35  1  0
 17 36  1  0
 17 37  1  0
 18 38  1  0
 19 39  1  0
 19 40  1  0
 19 41  1  0
 22 42  1  0
M  END
$$$$
