
     RDKit          3D

 22 24  0  0  0  0  0  0  0  0999 V2000
    1.4217   -2.6156    0.8893 O   0  0  0  0  0  0  0  0  0  0  0  0
    0.7464   -1.6468    0.5557 C   0  0  0  0  0  0  0  0  0  0  0  0
   -0.6437   -1.7540    0.5516 O   0  0  0  0  0  0  0  0  0  0  0  0
   -1.4775   -0.6893    0.1825 C   0  0  0  0  0  0  0  0  0  0  0  0
   -2.8537   -0.9018    0.2129 C   0  0  0  0  0  0  0  0  0  0  0  0
   -3.7077    0.1390   -0.1490 C   0  0  0  0  0  0  0  0  0  0  0  0
   -3.1710    1.3693   -0.5336 C   0  0  0  0  0  0  0  0  0  0  0  0
   -4.3296    2.7808   -1.0244 Br  0  0  0  0  0  0  0  0  0  0  0  0
   -1.7880    1.5702   -0.5601 C   0  0  0  0  0  0  0  0  0  0  0  0
   -0.9319    0.5277   -0.1975 C   0  0  0  0  0  0  0  0  0  0  0  0
    0.5136    0.6700   -0.2032 C   0  0  0  0  0  0  0  0  0  0  0  0
    1.3452   -0.3331    0.1459 C   0  0  0  0  0  0  0  0  0  0  0  0
    2.7792   -0.1534    0.1277 C   0  0  0  0  0  0  0  0  0  0  0  0
    3.7607   -1.0731    0.4539 C   0  0  0  0  0  0  0  0  0  0  0  0
    5.2850   -0.3086    0.2483 S   0  0  0  0  0  0  0  0  0  0  0  0
    4.5994    1.1337   -0.2394 N   0  0  0  0  0  0  0  0  0  0  0  0
    3.2790    1.0910   -0.2625 N   0  0  0  0  0  0  0  0  0  0  0  0
   -3.2562   -1.8648    0.5144 H   0  0  0  0  0  0  0  0  0  0  0  0
   -4.7835   -0.0162   -0.1288 H   0  0  0  0  0  0  0  0  0  0  0  0
   -1.3854    2.5342   -0.8618 H   0  0  0  0  0  0  0  0  0  0  0  0
    0.9026    1.6392   -0.5071 H   0  0  0  0  0  0  0  0  0  0  0  0
    3.6954   -2.0984    0.7851 H   0  0  0  0  0  0  0  0  0  0  0  0
  1  2  2  0
  2  3  1  0
  3  4  1  0
  4  5  2  0
  5  6  1  0
  6  7  2  0
  7  8  1  0
  7  9  1  0
  9 10  2  0
 10 11  1  0
 11 12  2  0
 12 13  1  0
 13 14  2  0
 14 15  1  0
 15 16  1  0
 16 17  2  0
 12  2  1  0
 17 13  1  0
 10  4  1  0
  5 18  1  0
  6 19  1  0
  9 20  1  0
 11 21  1  0
 14 22  1  0
M  END
$$$$
