
     RDKit          3D

 71 73  0  0  0  0  0  0  0  0999 V2000
   -6.1077   -3.7688    0.9006 C   0  0  0  0  0  0  0  0  0  0  0  0
   -6.3094   -2.2620    0.8512 C   0  0  0  0  0  0  0  0  0  0  0  0
   -4.9715   -1.5196    0.8777 C   0  0  0  0  0  0  0  0  0  0  0  0
   -5.1219    0.0096    0.8815 C   0  0  0  0  0  0  0  0  0  0  0  0
   -5.6757    0.4908   -0.3928 N   0  0  0  0  0  0  0  0  0  0  0  0
   -7.0166    1.0812   -0.2186 C   0  0  0  0  0  0  0  0  0  0  0  0
   -7.0705    2.4383    0.4830 C   0  0  0  0  0  0  0  0  0  0  0  0
   -4.7705    1.4007   -1.1289 C   0  0  0  0  0  0  0  0  0  0  0  0
   -3.6325    0.6890   -1.8931 C   0  0  0  0  0  0  0  0  0  0  0  0
   -2.5973    0.1198   -1.0511 N   0  0  0  0  0  0  0  0  0  0  0  0
   -1.6642    0.9098   -0.4128 C   0  0  0  0  0  0  0  0  0  0  0  0
   -1.6303    2.1319   -0.5342 O   0  0  0  0  0  0  0  0  0  0  0  0
   -0.7388    0.1313    0.5209 C   0  0  0  0  0  0  0  0  0  0  0  0
    0.3608    0.9737    0.9600 N   0  0  0  0  0  0  0  0  0  0  0  0
    0.2049    1.7667    2.0759 C   0  0  0  0  0  0  0  0  0  0  0  0
    1.1108    2.5393    2.5769 N   0  0  0  0  0  0  0  0  0  0  0  0
    2.2675    2.5748    1.8702 C   0  0  0  0  0  0  0  0  0  0  0  0
    3.5458    3.5649    2.3822 S   0  0  0  0  0  0  0  0  0  0  0  0
    4.5240    3.1270    1.0453 C   0  0  0  0  0  0  0  0  0  0  0  0
    5.8743    3.7644    0.9344 C   0  0  0  0  0  0  0  0  0  0  0  0
    3.8776    2.2136    0.2158 C   0  0  0  0  0  0  0  0  0  0  0  0
    4.5650    1.5770   -1.2669 S   0  0  0  0  0  6  0  0  0  0  0  0
    5.7459    2.3868   -1.4910 O   0  0  0  0  0  0  0  0  0  0  0  0
    3.4823    1.6027   -2.2224 O   0  0  0  0  0  0  0  0  0  0  0  0
    5.1073    0.0050   -1.0043 N   0  0  0  0  0  0  0  0  0  0  0  0
    6.2335   -0.2055   -0.0783 C   0  0  0  0  0  0  0  0  0  0  0  0
    6.1963   -1.5981    0.5445 C   0  0  0  0  0  0  0  0  0  0  0  0
    6.1254   -2.6926   -0.5277 C   0  0  0  0  0  0  0  0  0  0  0  0
    5.8182   -4.0468    0.1085 C   0  0  0  0  0  0  0  0  0  0  0  0
    5.1086   -2.3503   -1.6341 C   0  0  0  0  0  0  0  0  0  0  0  0
    4.2381   -1.1439   -1.2843 C   0  0  0  0  0  0  0  0  0  0  0  0
    2.5692    1.8732    0.7211 C   0  0  0  0  0  0  0  0  0  0  0  0
    1.5498    0.9556    0.2323 C   0  0  0  0  0  0  0  0  0  0  0  0
    1.7309    0.1667   -0.6878 O   0  0  0  0  0  0  0  0  0  0  0  0
   -7.0741   -4.2826    0.8930 H   0  0  0  0  0  0  0  0  0  0  0  0
   -5.5719   -4.0648    1.8082 H   0  0  0  0  0  0  0  0  0  0  0  0
   -5.5344   -4.1140    0.0347 H   0  0  0  0  0  0  0  0  0  0  0  0
   -6.8684   -2.0121   -0.0575 H   0  0  0  0  0  0  0  0  0  0  0  0
   -6.9209   -1.9530    1.7066 H   0  0  0  0  0  0  0  0  0  0  0  0
   -4.4176   -1.8090    1.7786 H   0  0  0  0  0  0  0  0  0  0  0  0
   -4.3652   -1.8386    0.0243 H   0  0  0  0  0  0  0  0  0  0  0  0
   -4.1444    0.4572    1.0934 H   0  0  0  0  0  0  0  0  0  0  0  0
   -5.7486    0.2911    1.7370 H   0  0  0  0  0  0  0  0  0  0  0  0
   -7.6585    0.3752    0.3244 H   0  0  0  0  0  0  0  0  0  0  0  0
   -7.4844    1.1800   -1.2061 H   0  0  0  0  0  0  0  0  0  0  0  0
   -8.1137    2.7251    0.6524 H   0  0  0  0  0  0  0  0  0  0  0  0
   -6.5685    2.4221    1.4537 H   0  0  0  0  0  0  0  0  0  0  0  0
   -6.6100    3.2212   -0.1277 H   0  0  0  0  0  0  0  0  0  0  0  0
   -5.3530    1.9190   -1.9023 H   0  0  0  0  0  0  0  0  0  0  0  0
   -4.3697    2.1780   -0.4679 H   0  0  0  0  0  0  0  0  0  0  0  0
   -3.1537    1.4092   -2.5664 H   0  0  0  0  0  0  0  0  0  0  0  0
   -4.0368   -0.1213   -2.5108 H   0  0  0  0  0  0  0  0  0  0  0  0
   -2.6248   -0.8779   -0.8899 H   0  0  0  0  0  0  0  0  0  0  0  0
   -1.3254   -0.1893    1.3891 H   0  0  0  0  0  0  0  0  0  0  0  0
   -0.3653   -0.7580    0.0029 H   0  0  0  0  0  0  0  0  0  0  0  0
   -0.7832    1.6952    2.5578 H   0  0  0  0  0  0  0  0  0  0  0  0
    6.1363    4.3308    1.8364 H   0  0  0  0  0  0  0  0  0  0  0  0
    6.6539    3.0078    0.7980 H   0  0  0  0  0  0  0  0  0  0  0  0
    5.8971    4.4670    0.0922 H   0  0  0  0  0  0  0  0  0  0  0  0
    6.2130    0.5314    0.7308 H   0  0  0  0  0  0  0  0  0  0  0  0
    7.1683   -0.0704   -0.6330 H   0  0  0  0  0  0  0  0  0  0  0  0
    7.0839   -1.7468    1.1696 H   0  0  0  0  0  0  0  0  0  0  0  0
    5.3293   -1.6728    1.2145 H   0  0  0  0  0  0  0  0  0  0  0  0
    7.1137   -2.7719   -1.0002 H   0  0  0  0  0  0  0  0  0  0  0  0
    5.8505   -4.8430   -0.6415 H   0  0  0  0  0  0  0  0  0  0  0  0
    4.8247   -4.0546    0.5679 H   0  0  0  0  0  0  0  0  0  0  0  0
    6.5531   -4.2891    0.8837 H   0  0  0  0  0  0  0  0  0  0  0  0
    5.6644   -2.1230   -2.5544 H   0  0  0  0  0  0  0  0  0  0  0  0
    4.4719   -3.2108   -1.8697 H   0  0  0  0  0  0  0  0  0  0  0  0
    3.5865   -0.9417   -2.1390 H   0  0  0  0  0  0  0  0  0  0  0  0
    3.6165   -1.3721   -0.4134 H   0  0  0  0  0  0  0  0  0  0  0  0
  1  2  1  0
  2  3  1  0
  3  4  1  0
  4  5  1  0
  5  6  1  0
  6  7  1  0
  5  8  1  0
  8  9  1  0
  9 10  1  0
 10 11  1  0
 11 12  2  0
 11 13  1  0
 13 14  1  0
 14 15  1  0
 15 16  2  0
 16 17  1  0
 17 18  1  0
 18 19  1  0
 19 20  1  0
 19 21  2  0
 21 22  1  0
 22 23  2  0
 22 24  2  0
 22 25  1  0
 25 26  1  0
 26 27  1  0
 27 28  1  0
 28 29  1  0
 28 30  1  0
 30 31  1  0
 21 32  1  0
 32 33  1  0
 33 34  2  0
 33 14  1  0
 32 17  2  0
 31 25  1  0
  1 35  1  0
  1 36  1  0
  1 37  1  0
  2 38  1  0
  2 39  1  0
  3 40  1  0
  3 41  1  0
  4 42  1  0
  4 43  1  0
  6 44  1  0
  6 45  1  0
  7 46  1  0
  7 47  1  0
  7 48  1  0
  8 49  1  0
  8 50  1  0
  9 51  1  0
  9 52  1  0
 10 53  1  0
 13 54  1  0
 13 55  1  0
 15 56  1  0
 20 57  1  0
 20 58  1  0
 20 59  1  0
 26 60  1  0
 26 61  1  0
 27 62  1  0
 27 63  1  0
 28 64  1  0
 29 65  1  0
 29 66  1  0
 29 67  1  0
 30 68  1  0
 30 69  1  0
 31 70  1  0
 31 71  1  0
M  END
$$$$
