
     RDKit          3D

 34 36  0  0  0  0  0  0  0  0999 V2000
   -5.1368    2.2246    0.3362 C   0  0  0  0  0  0  0  0  0  0  0  0
   -4.2254    1.1225    0.5150 N   0  0  0  0  0  0  0  0  0  0  0  0
   -4.3529    0.3188    1.6015 N   0  0  0  0  0  0  0  0  0  0  0  0
   -3.3630   -0.5717    1.4565 C   0  0  0  0  0  0  0  0  0  0  0  0
   -2.6249   -0.3458    0.2904 C   0  0  0  0  0  0  0  0  0  0  0  0
   -1.4968   -0.9683   -0.3347 C   0  0  0  0  0  0  0  0  0  0  0  0
   -0.8765   -1.9075    0.1596 O   0  0  0  0  0  0  0  0  0  0  0  0
   -1.1494   -0.3671   -1.5484 N   0  0  0  0  0  0  0  0  0  0  0  0
   -0.0303   -0.9208   -2.2890 C   0  0  0  0  0  0  0  0  0  0  0  0
    1.2694   -0.3226   -1.7538 C   0  0  0  0  0  0  0  0  0  0  0  0
    1.7963    0.6250   -2.3294 O   0  0  0  0  0  0  0  0  0  0  0  0
    1.6982   -0.9244   -0.5822 N   0  0  0  0  0  0  0  0  0  0  0  0
    2.8535   -0.6253    0.1658 C   0  0  0  0  0  0  0  0  0  0  0  0
    3.8290    0.2920   -0.2361 C   0  0  0  0  0  0  0  0  0  0  0  0
    4.9509    0.5263    0.5657 C   0  0  0  0  0  0  0  0  0  0  0  0
    5.0965   -0.1584    1.7648 C   0  0  0  0  0  0  0  0  0  0  0  0
    6.1729    0.0665    2.5291 F   0  0  0  0  0  0  0  0  0  0  0  0
    4.1413   -1.0761    2.1791 C   0  0  0  0  0  0  0  0  0  0  0  0
    3.0200   -1.3097    1.3793 C   0  0  0  0  0  0  0  0  0  0  0  0
   -1.8035    0.7665   -2.0250 C   0  0  0  0  0  0  0  0  0  0  0  0
   -2.8166    1.3520   -1.4582 N   0  0  0  0  0  0  0  0  0  0  0  0
   -3.1956    0.7512   -0.3048 C   0  0  0  0  0  0  0  0  0  0  0  0
   -5.1249    2.8335    1.2445 H   0  0  0  0  0  0  0  0  0  0  0  0
   -6.1362    1.8164    0.1621 H   0  0  0  0  0  0  0  0  0  0  0  0
   -4.8273    2.8320   -0.5182 H   0  0  0  0  0  0  0  0  0  0  0  0
   -3.2304   -1.3411    2.2064 H   0  0  0  0  0  0  0  0  0  0  0  0
   -0.0045   -2.0119   -2.1935 H   0  0  0  0  0  0  0  0  0  0  0  0
   -0.1179   -0.6746   -3.3528 H   0  0  0  0  0  0  0  0  0  0  0  0
    1.0662   -1.6100   -0.1660 H   0  0  0  0  0  0  0  0  0  0  0  0
    3.7511    0.8392   -1.1705 H   0  0  0  0  0  0  0  0  0  0  0  0
    5.7098    1.2382    0.2565 H   0  0  0  0  0  0  0  0  0  0  0  0
    4.2737   -1.6034    3.1180 H   0  0  0  0  0  0  0  0  0  0  0  0
    2.2793   -2.0301    1.7190 H   0  0  0  0  0  0  0  0  0  0  0  0
   -1.3953    1.1640   -2.9690 H   0  0  0  0  0  0  0  0  0  0  0  0
  1  2  1  0
  2  3  1  0
  3  4  2  0
  4  5  1  0
  5  6  1  0
  6  7  2  0
  6  8  1  0
  8  9  1  0
  9 10  1  0
 10 11  2  0
 10 12  1  0
 12 13  1  0
 13 14  2  0
 14 15  1  0
 15 16  2  0
 16 17  1  0
 16 18  1  0
 18 19  2  0
  8 20  1  0
 20 21  2  0
 21 22  1  0
 22  2  1  0
 22  5  2  0
 19 13  1  0
  1 23  1  0
  1 24  1  0
  1 25  1  0
  4 26  1  0
  9 27  1  0
  9 28  1  0
 12 29  1  0
 14 30  1  0
 15 31  1  0
 18 32  1  0
 19 33  1  0
 20 34  1  0
M  END
$$$$
