
     RDKit          3D

 70 74  0  0  0  0  0  0  0  0999 V2000
   -3.5652    0.6538    1.8810 C   0  0  0  0  0  0  0  0  0  0  0  0
   -4.5033    0.4235    0.7557 N   0  0  0  0  0  0  0  0  0  0  0  0
   -5.9306    0.3800    1.2104 C   0  0  0  0  0  0  0  0  0  0  0  0
   -6.6294    1.7480    1.2382 C   0  0  0  0  0  0  0  0  0  0  0  0
   -8.1560    1.6385    1.1483 C   0  0  0  0  0  0  0  0  0  0  0  0
   -8.6770    0.3407    1.7520 C   0  0  0  0  0  0  0  0  0  0  0  0
   -8.1099   -0.8924    1.0435 C   0  0  0  0  0  0  0  0  0  0  0  0
   -6.7274   -0.6628    0.4234 C   0  0  0  0  0  0  0  0  0  0  0  0
   -4.1148    1.2652   -0.6798 S   0  0  0  0  0  6  0  0  0  0  0  0
   -5.1253    1.0064   -1.6815 O   0  0  0  0  0  0  0  0  0  0  0  0
   -3.7450    2.6154   -0.3127 O   0  0  0  0  0  0  0  0  0  0  0  0
   -2.6478    0.4158   -1.2186 C   0  0  0  0  0  0  0  0  0  0  0  0
   -2.7660   -0.8806   -1.7196 C   0  0  0  0  0  0  0  0  0  0  0  0
   -1.6280   -1.5600   -2.1690 C   0  0  0  0  0  0  0  0  0  0  0  0
   -0.3550   -0.9633   -2.1297 C   0  0  0  0  0  0  0  0  0  0  0  0
   -0.2707    0.3531   -1.6178 C   0  0  0  0  0  0  0  0  0  0  0  0
   -1.4069    1.0456   -1.1722 C   0  0  0  0  0  0  0  0  0  0  0  0
    1.0505    1.0325   -1.5418 C   0  0  0  0  0  0  0  0  0  0  0  0
    1.1355    2.1662   -1.0805 O   0  0  0  0  0  0  0  0  0  0  0  0
    2.2325    0.2855   -2.0254 C   0  0  0  0  0  0  0  0  0  0  0  0
    3.6142    0.8229   -2.0696 C   0  0  0  0  0  0  0  0  0  0  0  0
    4.2709    0.7013   -3.1060 O   0  0  0  0  0  0  0  0  0  0  0  0
    4.1336    1.4150   -0.9300 N   0  0  0  0  0  0  0  0  0  0  0  0
    5.5068    1.9199   -0.9834 C   0  0  0  0  0  0  0  0  0  0  0  0
    6.4965    0.8822   -0.4157 C   0  0  0  0  0  0  0  0  0  0  0  0
    6.0875    0.4854    0.9572 N   0  0  0  0  0  0  0  0  0  0  0  0
    6.9939   -0.4143    1.5563 C   0  0  0  0  0  0  0  0  0  0  0  0
    8.3162   -0.0189    1.7740 C   0  0  0  0  0  0  0  0  0  0  0  0
    9.2171   -0.8934    2.3805 C   0  0  0  0  0  0  0  0  0  0  0  0
    8.7807   -2.1491    2.7703 C   0  0  0  0  0  0  0  0  0  0  0  0
    7.4567   -2.4684    2.5402 C   0  0  0  0  0  0  0  0  0  0  0  0
    6.5678   -1.6346    1.9542 N   0  0  0  0  0  0  0  0  0  0  0  0
    4.6838    0.0102    1.0331 C   0  0  0  0  0  0  0  0  0  0  0  0
    3.7201    1.0596    0.4359 C   0  0  0  0  0  0  0  0  0  0  0  0
    2.0286   -0.9468   -2.5121 C   0  0  0  0  0  0  0  0  0  0  0  0
    0.8172   -1.6155   -2.5738 N   0  0  0  0  0  0  0  0  0  0  0  0
    0.7070   -2.9527   -3.1601 C   0  0  0  0  0  0  0  0  0  0  0  0
   -2.5243    0.6014    1.5538 H   0  0  0  0  0  0  0  0  0  0  0  0
   -3.7480    1.6268    2.3471 H   0  0  0  0  0  0  0  0  0  0  0  0
   -3.6941   -0.1294    2.6354 H   0  0  0  0  0  0  0  0  0  0  0  0
   -5.9182    0.0155    2.2489 H   0  0  0  0  0  0  0  0  0  0  0  0
   -6.3559    2.2565    2.1719 H   0  0  0  0  0  0  0  0  0  0  0  0
   -6.2997    2.4137    0.4358 H   0  0  0  0  0  0  0  0  0  0  0  0
   -8.4594    1.6898    0.0947 H   0  0  0  0  0  0  0  0  0  0  0  0
   -8.6148    2.4998    1.6470 H   0  0  0  0  0  0  0  0  0  0  0  0
   -9.7719    0.3159    1.7109 H   0  0  0  0  0  0  0  0  0  0  0  0
   -8.4053    0.3051    2.8147 H   0  0  0  0  0  0  0  0  0  0  0  0
   -8.7991   -1.2166    0.2540 H   0  0  0  0  0  0  0  0  0  0  0  0
   -8.0611   -1.7185    1.7634 H   0  0  0  0  0  0  0  0  0  0  0  0
   -6.1857   -1.6149    0.3750 H   0  0  0  0  0  0  0  0  0  0  0  0
   -6.8665   -0.3381   -0.6129 H   0  0  0  0  0  0  0  0  0  0  0  0
   -3.7405   -1.3638   -1.7687 H   0  0  0  0  0  0  0  0  0  0  0  0
   -1.7698   -2.5659   -2.5543 H   0  0  0  0  0  0  0  0  0  0  0  0
   -1.3150    2.0634   -0.7964 H   0  0  0  0  0  0  0  0  0  0  0  0
    5.7863    2.1871   -2.0080 H   0  0  0  0  0  0  0  0  0  0  0  0
    5.5402    2.8375   -0.3835 H   0  0  0  0  0  0  0  0  0  0  0  0
    6.5189   -0.0018   -1.0669 H   0  0  0  0  0  0  0  0  0  0  0  0
    7.4940    1.3351   -0.4209 H   0  0  0  0  0  0  0  0  0  0  0  0
    8.6443    0.9775    1.4997 H   0  0  0  0  0  0  0  0  0  0  0  0
   10.2439   -0.5871    2.5544 H   0  0  0  0  0  0  0  0  0  0  0  0
    9.4493   -2.8549    3.2487 H   0  0  0  0  0  0  0  0  0  0  0  0
    7.0568   -3.4353    2.8317 H   0  0  0  0  0  0  0  0  0  0  0  0
    4.3954   -0.1634    2.0773 H   0  0  0  0  0  0  0  0  0  0  0  0
    4.5685   -0.9293    0.4755 H   0  0  0  0  0  0  0  0  0  0  0  0
    2.7048    0.6616    0.4677 H   0  0  0  0  0  0  0  0  0  0  0  0
    3.7424    1.9786    1.0333 H   0  0  0  0  0  0  0  0  0  0  0  0
    2.8670   -1.5179   -2.9086 H   0  0  0  0  0  0  0  0  0  0  0  0
    1.6852   -3.3396   -3.4680 H   0  0  0  0  0  0  0  0  0  0  0  0
    0.3002   -3.6653   -2.4341 H   0  0  0  0  0  0  0  0  0  0  0  0
    0.0733   -2.9369   -4.0538 H   0  0  0  0  0  0  0  0  0  0  0  0
  1  2  1  0
  2  3  1  0
  3  4  1  0
  4  5  1  0
  5  6  1  0
  6  7  1  0
  7  8  1  0
  2  9  1  0
  9 10  2  0
  9 11  2  0
  9 12  1  0
 12 13  2  0
 13 14  1  0
 14 15  2  0
 15 16  1  0
 16 17  2  0
 16 18  1  0
 18 19  2  0
 18 20  1  0
 20 21  1  0
 21 22  2  0
 21 23  1  0
 23 24  1  0
 24 25  1  0
 25 26  1  0
 26 27  1  0
 27 28  2  0
 28 29  1  0
 29 30  2  0
 30 31  1  0
 31 32  2  0
 26 33  1  0
 33 34  1  0
 20 35  2  0
 35 36  1  0
 36 37  1  0
  8  3  1  0
 17 12  1  0
 34 23  1  0
 36 15  1  0
 32 27  1  0
  1 38  1  0
  1 39  1  0
  1 40  1  0
  3 41  1  0
  4 42  1  0
  4 43  1  0
  5 44  1  0
  5 45  1  0
  6 46  1  0
  6 47  1  0
  7 48  1  0
  7 49  1  0
  8 50  1  0
  8 51  1  0
 13 52  1  0
 14 53  1  0
 17 54  1  0
 24 55  1  0
 24 56  1  0
 25 57  1  0
 25 58  1  0
 28 59  1  0
 29 60  1  0
 30 61  1  0
 31 62  1  0
 33 63  1  0
 33 64  1  0
 34 65  1  0
 34 66  1  0
 35 67  1  0
 37 68  1  0
 37 69  1  0
 37 70  1  0
M  END
$$$$
