
     RDKit          3D

 51 53  0  0  0  0  0  0  0  0999 V2000
    6.1550   -3.0420   -1.5851 C   0  0  0  0  0  0  0  0  0  0  0  0
    5.4535   -2.8331   -0.3656 O   0  0  0  0  0  0  0  0  0  0  0  0
    4.6865   -1.7046   -0.2769 C   0  0  0  0  0  0  0  0  0  0  0  0
    4.0726   -1.5157    0.9665 C   0  0  0  0  0  0  0  0  0  0  0  0
    3.2567   -0.4072    1.1988 C   0  0  0  0  0  0  0  0  0  0  0  0
    3.0471    0.5120    0.1698 C   0  0  0  0  0  0  0  0  0  0  0  0
    2.0003    1.9218    0.4355 S   0  0  0  0  0  6  0  0  0  0  0  0
    2.6814    3.0629   -0.1383 O   0  0  0  0  0  0  0  0  0  0  0  0
    1.5564    1.9169    1.8120 O   0  0  0  0  0  0  0  0  0  0  0  0
    0.6832    1.5909   -0.5882 N   0  0  0  0  0  0  0  0  0  0  0  0
   -0.3954    0.8315   -0.0232 C   0  0  0  0  0  0  0  0  0  0  0  0
   -0.2380   -0.5487    0.1436 C   0  0  0  0  0  0  0  0  0  0  0  0
   -1.2690   -1.2284    0.7540 C   0  0  0  0  0  0  0  0  0  0  0  0
   -2.4252   -0.5808    1.1932 C   0  0  0  0  0  0  0  0  0  0  0  0
   -2.6077    0.7770    1.0347 C   0  0  0  0  0  0  0  0  0  0  0  0
   -1.5811    1.4962    0.4047 C   0  0  0  0  0  0  0  0  0  0  0  0
   -1.7723    3.2659    0.1562 S   0  0  0  0  0  0  0  0  0  0  0  0
   -3.1860    3.2925   -1.0172 C   0  0  0  0  0  0  0  0  0  0  0  0
   -2.7447    2.8132   -2.3973 C   0  0  0  0  0  0  0  0  0  0  0  0
   -3.7218    4.7202   -1.0908 C   0  0  0  0  0  0  0  0  0  0  0  0
   -3.2624   -1.5428    1.7713 N   0  0  0  0  0  0  0  0  0  0  0  0
   -4.5407   -1.2825    2.3670 C   0  0  0  0  0  0  0  0  0  0  0  0
   -2.6324   -2.8058    1.7037 C   0  0  0  0  0  0  0  0  0  0  0  0
   -3.0694   -3.8675    2.1176 O   0  0  0  0  0  0  0  0  0  0  0  0
   -1.3941   -2.5889    1.0600 N   0  0  0  0  0  0  0  0  0  0  0  0
   -0.4040   -3.5932    0.7967 C   0  0  0  0  0  0  0  0  0  0  0  0
    3.6627    0.3423   -1.0732 C   0  0  0  0  0  0  0  0  0  0  0  0
    4.4806   -0.7702   -1.2952 C   0  0  0  0  0  0  0  0  0  0  0  0
    6.7369   -3.9630   -1.4825 H   0  0  0  0  0  0  0  0  0  0  0  0
    6.8566   -2.2248   -1.7829 H   0  0  0  0  0  0  0  0  0  0  0  0
    5.4602   -3.1783   -2.4203 H   0  0  0  0  0  0  0  0  0  0  0  0
    4.2387   -2.2382    1.7629 H   0  0  0  0  0  0  0  0  0  0  0  0
    2.7927   -0.2745    2.1737 H   0  0  0  0  0  0  0  0  0  0  0  0
    0.3970    2.4734   -1.0210 H   0  0  0  0  0  0  0  0  0  0  0  0
    0.6483   -1.0662   -0.1987 H   0  0  0  0  0  0  0  0  0  0  0  0
   -3.5050    1.2671    1.3930 H   0  0  0  0  0  0  0  0  0  0  0  0
   -3.9844    2.6444   -0.6411 H   0  0  0  0  0  0  0  0  0  0  0  0
   -2.4060    1.7723   -2.3756 H   0  0  0  0  0  0  0  0  0  0  0  0
   -3.5818    2.8636   -3.1026 H   0  0  0  0  0  0  0  0  0  0  0  0
   -1.9349    3.4300   -2.8033 H   0  0  0  0  0  0  0  0  0  0  0  0
   -4.0612    5.0699   -0.1093 H   0  0  0  0  0  0  0  0  0  0  0  0
   -2.9680    5.4220   -1.4656 H   0  0  0  0  0  0  0  0  0  0  0  0
   -4.5820    4.7695   -1.7680 H   0  0  0  0  0  0  0  0  0  0  0  0
   -4.9859   -2.2106    2.7356 H   0  0  0  0  0  0  0  0  0  0  0  0
   -5.2054   -0.8403    1.6192 H   0  0  0  0  0  0  0  0  0  0  0  0
   -4.4144   -0.5910    3.2051 H   0  0  0  0  0  0  0  0  0  0  0  0
   -0.2066   -3.6340   -0.2784 H   0  0  0  0  0  0  0  0  0  0  0  0
   -0.7560   -4.5725    1.1324 H   0  0  0  0  0  0  0  0  0  0  0  0
    0.5161   -3.3426    1.3326 H   0  0  0  0  0  0  0  0  0  0  0  0
    3.5105    1.0692   -1.8683 H   0  0  0  0  0  0  0  0  0  0  0  0
    4.9428   -0.8769   -2.2713 H   0  0  0  0  0  0  0  0  0  0  0  0
  1  2  1  0
  2  3  1  0
  3  4  2  0
  4  5  1  0
  5  6  2  0
  6  7  1  0
  7  8  2  0
  7  9  2  0
  7 10  1  0
 10 11  1  0
 11 12  2  0
 12 13  1  0
 13 14  2  0
 14 15  1  0
 15 16  2  0
 16 17  1  0
 17 18  1  0
 18 19  1  0
 18 20  1  0
 14 21  1  0
 21 22  1  0
 21 23  1  0
 23 24  2  0
 23 25  1  0
 25 26  1  0
  6 27  1  0
 27 28  2  0
 28  3  1  0
 16 11  1  0
 25 13  1  0
  1 29  1  0
  1 30  1  0
  1 31  1  0
  4 32  1  0
  5 33  1  0
 10 34  1  0
 12 35  1  0
 15 36  1  0
 18 37  1  0
 19 38  1  0
 19 39  1  0
 19 40  1  0
 20 41  1  0
 20 42  1  0
 20 43  1  0
 22 44  1  0
 22 45  1  0
 22 46  1  0
 26 47  1  0
 26 48  1  0
 26 49  1  0
 27 50  1  0
 28 51  1  0
M  END
$$$$
