
     RDKit          3D

 57 59  0  0  0  0  0  0  0  0999 V2000
    2.5543    3.4399   -0.4973 C   0  0  0  0  0  0  0  0  0  0  0  0
    2.7569    1.9346   -0.6635 C   0  0  0  0  0  0  0  0  0  0  0  0
    4.1373    1.5205   -0.1301 C   0  0  0  0  0  0  0  0  0  0  0  0
    4.4781    0.0561   -0.4260 C   0  0  0  0  0  0  0  0  0  0  0  0
    5.8835   -0.2790    0.0113 C   0  0  0  0  0  0  0  0  0  0  0  0
    6.1565   -0.5920    1.3498 C   0  0  0  0  0  0  0  0  0  0  0  0
    7.4597   -0.8807    1.7571 C   0  0  0  0  0  0  0  0  0  0  0  0
    8.5013   -0.8570    0.8319 C   0  0  0  0  0  0  0  0  0  0  0  0
    8.2408   -0.5447   -0.5009 C   0  0  0  0  0  0  0  0  0  0  0  0
    6.9383   -0.2547   -0.9098 C   0  0  0  0  0  0  0  0  0  0  0  0
    1.6863    1.2292    0.0326 N   0  0  0  0  0  0  0  0  0  0  0  0
    1.0420    0.1368   -0.5089 C   0  0  0  0  0  0  0  0  0  0  0  0
    1.2775   -0.3032   -1.6287 O   0  0  0  0  0  0  0  0  0  0  0  0
   -0.0006   -0.4528    0.4176 C   0  0  0  0  0  0  0  0  0  0  0  0
   -0.6657   -1.6928   -0.1677 C   0  0  0  0  0  0  0  0  0  0  0  0
   -1.5196   -1.3181   -1.3043 N   0  0  0  0  0  0  0  0  0  0  0  0
   -2.7907   -2.3326   -1.7227 S   0  0  0  0  0  6  0  0  0  0  0  0
   -2.4416   -3.6824   -1.3406 O   0  0  0  0  0  0  0  0  0  0  0  0
   -3.1745   -1.9898   -3.0734 O   0  0  0  0  0  0  0  0  0  0  0  0
   -4.0748   -1.7451   -0.6451 C   0  0  0  0  0  0  0  0  0  0  0  0
   -4.5172   -2.5407    0.4156 C   0  0  0  0  0  0  0  0  0  0  0  0
   -5.5328   -2.0710    1.2502 C   0  0  0  0  0  0  0  0  0  0  0  0
   -6.0882   -0.8107    1.0236 C   0  0  0  0  0  0  0  0  0  0  0  0
   -5.6580   -0.0182   -0.0482 C   0  0  0  0  0  0  0  0  0  0  0  0
   -4.6506   -0.4943   -0.8937 C   0  0  0  0  0  0  0  0  0  0  0  0
   -6.3686    1.2750   -0.3350 C   0  0  0  0  0  0  0  0  0  0  0  0
   -6.8758    1.9184    0.9447 C   0  0  0  0  0  0  0  0  0  0  0  0
   -7.6041    0.9312    1.8271 C   0  0  0  0  0  0  0  0  0  0  0  0
   -8.5339    1.2644    2.5580 O   0  0  0  0  0  0  0  0  0  0  0  0
   -7.1045   -0.3436    1.8609 N   0  0  0  0  0  0  0  0  0  0  0  0
    2.5922    3.7319    0.5579 H   0  0  0  0  0  0  0  0  0  0  0  0
    1.5769    3.7447   -0.8891 H   0  0  0  0  0  0  0  0  0  0  0  0
    3.3241    4.0012   -1.0363 H   0  0  0  0  0  0  0  0  0  0  0  0
    2.7015    1.6999   -1.7330 H   0  0  0  0  0  0  0  0  0  0  0  0
    4.1851    1.6980    0.9525 H   0  0  0  0  0  0  0  0  0  0  0  0
    4.9024    2.1636   -0.5852 H   0  0  0  0  0  0  0  0  0  0  0  0
    4.3685   -0.1486   -1.4983 H   0  0  0  0  0  0  0  0  0  0  0  0
    3.7812   -0.6174    0.0867 H   0  0  0  0  0  0  0  0  0  0  0  0
    5.3541   -0.6134    2.0827 H   0  0  0  0  0  0  0  0  0  0  0  0
    7.6628   -1.1242    2.7968 H   0  0  0  0  0  0  0  0  0  0  0  0
    9.5158   -1.0827    1.1489 H   0  0  0  0  0  0  0  0  0  0  0  0
    9.0523   -0.5268   -1.2233 H   0  0  0  0  0  0  0  0  0  0  0  0
    6.7513   -0.0110   -1.9531 H   0  0  0  0  0  0  0  0  0  0  0  0
    1.4921    1.4886    0.9922 H   0  0  0  0  0  0  0  0  0  0  0  0
   -0.7495    0.3182    0.6342 H   0  0  0  0  0  0  0  0  0  0  0  0
    0.4984   -0.7240    1.3554 H   0  0  0  0  0  0  0  0  0  0  0  0
   -1.2712   -2.1580    0.6173 H   0  0  0  0  0  0  0  0  0  0  0  0
    0.0840   -2.4169   -0.5041 H   0  0  0  0  0  0  0  0  0  0  0  0
   -1.0279   -0.9540   -2.1279 H   0  0  0  0  0  0  0  0  0  0  0  0
   -4.0841   -3.5226    0.5935 H   0  0  0  0  0  0  0  0  0  0  0  0
   -5.8762   -2.6926    2.0726 H   0  0  0  0  0  0  0  0  0  0  0  0
   -4.3212    0.0955   -1.7470 H   0  0  0  0  0  0  0  0  0  0  0  0
   -7.2092    1.0619   -1.0069 H   0  0  0  0  0  0  0  0  0  0  0  0
   -5.6997    1.9752   -0.8487 H   0  0  0  0  0  0  0  0  0  0  0  0
   -7.5525    2.7436    0.6992 H   0  0  0  0  0  0  0  0  0  0  0  0
   -6.0413    2.3255    1.5285 H   0  0  0  0  0  0  0  0  0  0  0  0
   -7.5210   -0.9581    2.5490 H   0  0  0  0  0  0  0  0  0  0  0  0
  1  2  1  0
  2  3  1  0
  3  4  1  0
  4  5  1  0
  5  6  2  0
  6  7  1  0
  7  8  2  0
  8  9  1  0
  9 10  2  0
  2 11  1  0
 11 12  1  0
 12 13  2  0
 12 14  1  0
 14 15  1  0
 15 16  1  0
 16 17  1  0
 17 18  2  0
 17 19  2  0
 17 20  1  0
 20 21  2  0
 21 22  1  0
 22 23  2  0
 23 24  1  0
 24 25  2  0
 24 26  1  0
 26 27  1  0
 27 28  1  0
 28 29  2  0
 28 30  1  0
 10  5  1  0
 25 20  1  0
 30 23  1  0
  1 31  1  0
  1 32  1  0
  1 33  1  0
  2 34  1  0
  3 35  1  0
  3 36  1  0
  4 37  1  0
  4 38  1  0
  6 39  1  0
  7 40  1  0
  8 41  1  0
  9 42  1  0
 10 43  1  0
 11 44  1  0
 14 45  1  0
 14 46  1  0
 15 47  1  0
 15 48  1  0
 16 49  1  0
 21 50  1  0
 22 51  1  0
 25 52  1  0
 26 53  1  0
 26 54  1  0
 27 55  1  0
 27 56  1  0
 30 57  1  0
M  END
$$$$
