
     RDKit          3D

 45 48  0  0  0  0  0  0  0  0999 V2000
   -2.1259   -0.0704    1.5004 O   0  0  0  0  0  0  0  0  0  0  0  0
   -2.4512   -0.0440    0.3073 C   0  0  0  0  0  0  0  0  0  0  0  0
   -1.3796    0.1484   -0.7671 C   0  0  0  0  0  0  0  0  0  0  0  0
   -0.3116    1.5580   -0.3438 S   0  0  0  0  0  0  0  0  0  0  0  0
    0.8949    0.7529    0.6184 C   0  0  0  0  0  0  0  0  0  0  0  0
    2.1063    0.6299    0.1626 N   0  0  0  0  0  0  0  0  0  0  0  0
    2.9615    0.0225    1.0333 C   0  0  0  0  0  0  0  0  0  0  0  0
    2.6297   -0.4427    2.2846 C   0  0  0  0  0  0  0  0  0  0  0  0
    3.8001   -0.9715    2.8222 C   0  0  0  0  0  0  0  0  0  0  0  0
    4.8316   -0.8601    1.9841 N   0  0  0  0  0  0  0  0  0  0  0  0
    4.3199   -0.2450    0.8678 N   0  0  0  0  0  0  0  0  0  0  0  0
    5.1768    0.0170   -0.2443 C   0  0  0  0  0  0  0  0  0  0  0  0
    4.7068    0.6214   -1.4202 C   0  0  0  0  0  0  0  0  0  0  0  0
    5.5800    0.8552   -2.4899 C   0  0  0  0  0  0  0  0  0  0  0  0
    6.9162    0.4937   -2.3831 C   0  0  0  0  0  0  0  0  0  0  0  0
    7.7453    0.7227   -3.4093 F   0  0  0  0  0  0  0  0  0  0  0  0
    7.4007   -0.1040   -1.2279 C   0  0  0  0  0  0  0  0  0  0  0  0
    6.5338   -0.3439   -0.1583 C   0  0  0  0  0  0  0  0  0  0  0  0
    1.2798   -0.3110    2.7570 C   0  0  0  0  0  0  0  0  0  0  0  0
    0.8958   -0.7272    3.8410 O   0  0  0  0  0  0  0  0  0  0  0  0
    0.4628    0.3259    1.8489 N   0  0  0  0  0  0  0  0  0  0  0  0
   -3.7774   -0.2008   -0.0914 N   0  0  0  0  0  0  0  0  0  0  0  0
   -4.8145   -0.3846    0.9287 C   0  0  0  0  0  0  0  0  0  0  0  0
   -6.0289    0.4928    0.6370 C   0  0  0  0  0  0  0  0  0  0  0  0
   -6.6132    0.2411   -0.7558 C   0  0  0  0  0  0  0  0  0  0  0  0
   -5.6920   -0.5877   -1.6523 C   0  0  0  0  0  0  0  0  0  0  0  0
   -4.2228   -0.1982   -1.4863 C   0  0  0  0  0  0  0  0  0  0  0  0
   -1.8058    0.3721   -1.7465 H   0  0  0  0  0  0  0  0  0  0  0  0
   -0.8051   -0.7798   -0.8568 H   0  0  0  0  0  0  0  0  0  0  0  0
    3.9529   -1.4325    3.7896 H   0  0  0  0  0  0  0  0  0  0  0  0
    3.6707    0.9244   -1.5432 H   0  0  0  0  0  0  0  0  0  0  0  0
    5.2224    1.3208   -3.4034 H   0  0  0  0  0  0  0  0  0  0  0  0
    8.4457   -0.3825   -1.1642 H   0  0  0  0  0  0  0  0  0  0  0  0
    6.9332   -0.8141    0.7393 H   0  0  0  0  0  0  0  0  0  0  0  0
   -0.5216    0.4091    2.0924 H   0  0  0  0  0  0  0  0  0  0  0  0
   -5.0926   -1.4467    0.9184 H   0  0  0  0  0  0  0  0  0  0  0  0
   -4.4323   -0.1600    1.9314 H   0  0  0  0  0  0  0  0  0  0  0  0
   -6.8017    0.3316    1.3956 H   0  0  0  0  0  0  0  0  0  0  0  0
   -5.7298    1.5474    0.7103 H   0  0  0  0  0  0  0  0  0  0  0  0
   -7.5813   -0.2695   -0.6666 H   0  0  0  0  0  0  0  0  0  0  0  0
   -6.8216    1.2077   -1.2304 H   0  0  0  0  0  0  0  0  0  0  0  0
   -5.9957   -0.4821   -2.7002 H   0  0  0  0  0  0  0  0  0  0  0  0
   -5.8128   -1.6494   -1.4013 H   0  0  0  0  0  0  0  0  0  0  0  0
   -4.0521    0.8096   -1.8828 H   0  0  0  0  0  0  0  0  0  0  0  0
   -3.5976   -0.8968   -2.0513 H   0  0  0  0  0  0  0  0  0  0  0  0
  1  2  2  0
  2  3  1  0
  3  4  1  0
  4  5  1  0
  5  6  2  0
  6  7  1  0
  7  8  2  0
  8  9  1  0
  9 10  2  0
 10 11  1  0
 11 12  1  0
 12 13  2  0
 13 14  1  0
 14 15  2  0
 15 16  1  0
 15 17  1  0
 17 18  2  0
  8 19  1  0
 19 20  2  0
 19 21  1  0
  2 22  1  0
 22 23  1  0
 23 24  1  0
 24 25  1  0
 25 26  1  0
 26 27  1  0
 21  5  1  0
 27 22  1  0
 11  7  1  0
 18 12  1  0
  3 28  1  0
  3 29  1  0
  9 30  1  0
 13 31  1  0
 14 32  1  0
 17 33  1  0
 18 34  1  0
 21 35  1  0
 23 36  1  0
 23 37  1  0
 24 38  1  0
 24 39  1  0
 25 40  1  0
 25 41  1  0
 26 42  1  0
 26 43  1  0
 27 44  1  0
 27 45  1  0
M  END
$$$$
