
     RDKit          3D

 49 53  0  0  0  0  0  0  0  0999 V2000
   -2.7473   -1.4793   -3.2430 C   0  0  0  0  0  0  0  0  0  0  0  0
   -2.7700   -0.6087   -2.0242 C   0  0  0  0  0  0  0  0  0  0  0  0
   -1.7574   -0.2908   -1.1985 C   0  0  0  0  0  0  0  0  0  0  0  0
   -0.4106   -0.5408   -1.1382 N   0  0  0  0  0  0  0  0  0  0  0  0
    0.4175   -1.1361   -2.0699 C   0  0  0  0  0  0  0  0  0  0  0  0
    0.0318   -1.5716   -3.1492 O   0  0  0  0  0  0  0  0  0  0  0  0
    1.8418   -1.1856   -1.6830 C   0  0  0  0  0  0  0  0  0  0  0  0
    2.4988   -0.6793   -0.5235 C   0  0  0  0  0  0  0  0  0  0  0  0
    3.8322   -0.9733   -0.7030 C   0  0  0  0  0  0  0  0  0  0  0  0
    5.0583   -0.7303    0.0531 C   0  0  0  0  0  0  0  0  0  0  0  0
    6.3056   -1.2258   -0.4061 C   0  0  0  0  0  0  0  0  0  0  0  0
    7.4926   -0.9846    0.2984 C   0  0  0  0  0  0  0  0  0  0  0  0
    7.4085   -0.2521    1.4618 C   0  0  0  0  0  0  0  0  0  0  0  0
    6.2070    0.2287    1.9239 C   0  0  0  0  0  0  0  0  0  0  0  0
    5.0221    0.0119    1.2473 C   0  0  0  0  0  0  0  0  0  0  0  0
    6.3389    0.9187    3.0908 O   0  0  0  0  0  0  0  0  0  0  0  0
    7.7571    0.7824    3.3267 C   0  0  0  0  0  0  0  0  0  0  0  0
    8.4482    0.0785    2.2733 O   0  0  0  0  0  0  0  0  0  0  0  0
    3.9671   -1.6343   -1.8850 O   0  0  0  0  0  0  0  0  0  0  0  0
    2.7418   -1.7670   -2.4960 N   0  0  0  0  0  0  0  0  0  0  0  0
   -2.3709    0.5389   -0.1081 C   0  0  0  0  0  0  0  0  0  0  0  0
   -1.7041    0.9467    0.8345 O   0  0  0  0  0  0  0  0  0  0  0  0
   -3.7299    0.6418   -0.3972 N   0  0  0  0  0  0  0  0  0  0  0  0
   -4.7649    0.8913    0.5398 C   0  0  0  0  0  0  0  0  0  0  0  0
   -6.0705    0.4233    0.3208 C   0  0  0  0  0  0  0  0  0  0  0  0
   -7.0908    0.6668    1.2445 C   0  0  0  0  0  0  0  0  0  0  0  0
   -6.8206    1.3812    2.4072 C   0  0  0  0  0  0  0  0  0  0  0  0
   -5.5312    1.8475    2.6468 C   0  0  0  0  0  0  0  0  0  0  0  0
   -4.5118    1.6033    1.7209 C   0  0  0  0  0  0  0  0  0  0  0  0
   -3.9904   -0.0124   -1.6379 N   0  0  0  0  0  0  0  0  0  0  0  0
   -4.6408    0.8744   -2.6255 C   0  0  0  0  0  0  0  0  0  0  0  0
   -3.7615   -1.7562   -3.5564 H   0  0  0  0  0  0  0  0  0  0  0  0
   -2.2719   -0.9567   -4.0805 H   0  0  0  0  0  0  0  0  0  0  0  0
   -2.2298   -2.4233   -3.0421 H   0  0  0  0  0  0  0  0  0  0  0  0
    0.0134   -0.1446   -0.3055 H   0  0  0  0  0  0  0  0  0  0  0  0
    2.0725   -0.1575    0.3210 H   0  0  0  0  0  0  0  0  0  0  0  0
    6.3635   -1.8109   -1.3250 H   0  0  0  0  0  0  0  0  0  0  0  0
    8.4444   -1.3649   -0.0595 H   0  0  0  0  0  0  0  0  0  0  0  0
    4.0990    0.4173    1.6502 H   0  0  0  0  0  0  0  0  0  0  0  0
    8.1937    1.7813    3.4281 H   0  0  0  0  0  0  0  0  0  0  0  0
    7.9047    0.2371    4.2659 H   0  0  0  0  0  0  0  0  0  0  0  0
   -6.3093   -0.1682   -0.5587 H   0  0  0  0  0  0  0  0  0  0  0  0
   -8.0929    0.2879    1.0577 H   0  0  0  0  0  0  0  0  0  0  0  0
   -7.6110    1.5688    3.1289 H   0  0  0  0  0  0  0  0  0  0  0  0
   -5.3132    2.4029    3.5558 H   0  0  0  0  0  0  0  0  0  0  0  0
   -3.5228    1.9966    1.9406 H   0  0  0  0  0  0  0  0  0  0  0  0
   -3.9557    1.6728   -2.9350 H   0  0  0  0  0  0  0  0  0  0  0  0
   -4.9393    0.3096   -3.5167 H   0  0  0  0  0  0  0  0  0  0  0  0
   -5.5418    1.3449   -2.2217 H   0  0  0  0  0  0  0  0  0  0  0  0
  1  2  1  0
  2  3  2  0
  3  4  1  0
  4  5  1  0
  5  6  2  0
  5  7  1  0
  7  8  1  0
  8  9  2  0
  9 10  1  0
 10 11  2  0
 11 12  1  0
 12 13  2  0
 13 14  1  0
 14 15  2  0
 14 16  1  0
 16 17  1  0
 17 18  1  0
  9 19  1  0
 19 20  1  0
  3 21  1  0
 21 22  2  0
 21 23  1  0
 23 24  1  0
 24 25  2  0
 25 26  1  0
 26 27  2  0
 27 28  1  0
 28 29  2  0
 23 30  1  0
 30 31  1  0
 30  2  1  0
 20  7  2  0
 29 24  1  0
 15 10  1  0
 18 13  1  0
  1 32  1  0
  1 33  1  0
  1 34  1  0
  4 35  1  0
  8 36  1  0
 11 37  1  0
 12 38  1  0
 15 39  1  0
 17 40  1  0
 17 41  1  0
 25 42  1  0
 26 43  1  0
 27 44  1  0
 28 45  1  0
 29 46  1  0
 31 47  1  0
 31 48  1  0
 31 49  1  0
M  END
$$$$
