
     RDKit          3D

 54 56  0  0  0  0  0  0  0  0999 V2000
   -6.2955   -0.8312    2.6742 C   0  0  0  0  0  0  0  0  0  0  0  0
   -6.2950    0.4809    1.8843 C   0  0  0  0  0  0  0  0  0  0  0  0
   -7.6335    0.6892    1.1706 C   0  0  0  0  0  0  0  0  0  0  0  0
   -5.1312    0.5483    0.9117 C   0  0  0  0  0  0  0  0  0  0  0  0
   -4.9901   -0.3747   -0.1345 C   0  0  0  0  0  0  0  0  0  0  0  0
   -3.9140   -0.2908   -1.0212 C   0  0  0  0  0  0  0  0  0  0  0  0
   -2.9595    0.7240   -0.8880 C   0  0  0  0  0  0  0  0  0  0  0  0
   -1.7926    0.8007   -1.8363 C   0  0  0  0  0  0  0  0  0  0  0  0
   -0.7025   -0.0226   -1.3767 N   0  0  0  0  0  0  0  0  0  0  0  0
   -0.4575   -1.2809   -1.8795 C   0  0  0  0  0  0  0  0  0  0  0  0
   -1.0873   -1.7803   -2.8084 O   0  0  0  0  0  0  0  0  0  0  0  0
    0.6543   -2.0381   -1.1491 C   0  0  0  0  0  0  0  0  0  0  0  0
    1.9308   -1.3513   -1.2465 N   0  0  0  0  0  0  0  0  0  0  0  0
    2.7310   -1.3663   -2.4514 C   0  0  0  0  0  0  0  0  0  0  0  0
    3.9214   -0.4861   -2.0860 C   0  0  0  0  0  0  0  0  0  0  0  0
    3.4121    0.3136   -0.9919 N   0  0  0  0  0  0  0  0  0  0  0  0
    4.1796    1.3548   -0.3432 C   0  0  0  0  0  0  0  0  0  0  0  0
    5.3668    0.8115    0.4142 C   0  0  0  0  0  0  0  0  0  0  0  0
    6.6724    1.0250   -0.0543 C   0  0  0  0  0  0  0  0  0  0  0  0
    7.7655    0.5102    0.6452 C   0  0  0  0  0  0  0  0  0  0  0  0
    7.5543   -0.2214    1.8079 C   0  0  0  0  0  0  0  0  0  0  0  0
    8.6053   -0.7151    2.4759 F   0  0  0  0  0  0  0  0  0  0  0  0
    6.2704   -0.4485    2.2869 C   0  0  0  0  0  0  0  0  0  0  0  0
    5.1766    0.0674    1.5911 C   0  0  0  0  0  0  0  0  0  0  0  0
    2.2672   -0.2589   -0.4507 C   0  0  0  0  0  0  0  0  0  0  0  0
    1.6334    0.1383    0.5134 O   0  0  0  0  0  0  0  0  0  0  0  0
   -3.0883    1.6385    0.1640 C   0  0  0  0  0  0  0  0  0  0  0  0
   -4.1647    1.5537    1.0508 C   0  0  0  0  0  0  0  0  0  0  0  0
   -5.3436   -0.9733    3.1990 H   0  0  0  0  0  0  0  0  0  0  0  0
   -7.0945   -0.8287    3.4238 H   0  0  0  0  0  0  0  0  0  0  0  0
   -6.4522   -1.6999    2.0249 H   0  0  0  0  0  0  0  0  0  0  0  0
   -6.1885    1.2959    2.6136 H   0  0  0  0  0  0  0  0  0  0  0  0
   -7.8485   -0.1179    0.4619 H   0  0  0  0  0  0  0  0  0  0  0  0
   -8.4550    0.7237    1.8944 H   0  0  0  0  0  0  0  0  0  0  0  0
   -7.6383    1.6328    0.6141 H   0  0  0  0  0  0  0  0  0  0  0  0
   -5.7164   -1.1724   -0.2700 H   0  0  0  0  0  0  0  0  0  0  0  0
   -3.8199   -1.0259   -1.8194 H   0  0  0  0  0  0  0  0  0  0  0  0
   -2.1008    0.5067   -2.8464 H   0  0  0  0  0  0  0  0  0  0  0  0
   -1.4215    1.8298   -1.8997 H   0  0  0  0  0  0  0  0  0  0  0  0
   -0.2236    0.2504   -0.5205 H   0  0  0  0  0  0  0  0  0  0  0  0
    0.3716   -2.1307   -0.0947 H   0  0  0  0  0  0  0  0  0  0  0  0
    0.7613   -3.0406   -1.5743 H   0  0  0  0  0  0  0  0  0  0  0  0
    3.0207   -2.3866   -2.7167 H   0  0  0  0  0  0  0  0  0  0  0  0
    2.1462   -0.9198   -3.2630 H   0  0  0  0  0  0  0  0  0  0  0  0
    4.7582   -1.0907   -1.7201 H   0  0  0  0  0  0  0  0  0  0  0  0
    4.2501    0.1472   -2.9148 H   0  0  0  0  0  0  0  0  0  0  0  0
    3.5358    1.9057    0.3519 H   0  0  0  0  0  0  0  0  0  0  0  0
    4.4984    2.0626   -1.1156 H   0  0  0  0  0  0  0  0  0  0  0  0
    6.8459    1.5940   -0.9640 H   0  0  0  0  0  0  0  0  0  0  0  0
    8.7782    0.6746    0.2924 H   0  0  0  0  0  0  0  0  0  0  0  0
    6.1273   -1.0229    3.1972 H   0  0  0  0  0  0  0  0  0  0  0  0
    4.1701   -0.1117    1.9678 H   0  0  0  0  0  0  0  0  0  0  0  0
   -2.3500    2.4251    0.3020 H   0  0  0  0  0  0  0  0  0  0  0  0
   -4.2406    2.2826    1.8545 H   0  0  0  0  0  0  0  0  0  0  0  0
  1  2  1  0
  2  3  1  0
  2  4  1  0
  4  5  2  0
  5  6  1  0
  6  7  2  0
  7  8  1  0
  8  9  1  0
  9 10  1  0
 10 11  2  0
 10 12  1  0
 12 13  1  0
 13 14  1  0
 14 15  1  0
 15 16  1  0
 16 17  1  0
 17 18  1  0
 18 19  2  0
 19 20  1  0
 20 21  2  0
 21 22  1  0
 21 23  1  0
 23 24  2  0
 16 25  1  0
 25 26  2  0
  7 27  1  0
 27 28  2  0
 28  4  1  0
 25 13  1  0
 24 18  1  0
  1 29  1  0
  1 30  1  0
  1 31  1  0
  2 32  1  0
  3 33  1  0
  3 34  1  0
  3 35  1  0
  5 36  1  0
  6 37  1  0
  8 38  1  0
  8 39  1  0
  9 40  1  0
 12 41  1  0
 12 42  1  0
 14 43  1  0
 14 44  1  0
 15 45  1  0
 15 46  1  0
 17 47  1  0
 17 48  1  0
 19 49  1  0
 20 50  1  0
 23 51  1  0
 24 52  1  0
 27 53  1  0
 28 54  1  0
M  END
$$$$
