
     RDKit          3D

 50 53  0  0  0  0  0  0  0  0999 V2000
    6.9643    2.0775    1.5790 C   0  0  0  0  0  0  0  0  0  0  0  0
    6.0247    1.3856    0.6367 C   0  0  0  0  0  0  0  0  0  0  0  0
    5.9415   -0.0106    0.6158 C   0  0  0  0  0  0  0  0  0  0  0  0
    5.0890   -0.6570   -0.2825 C   0  0  0  0  0  0  0  0  0  0  0  0
    4.3144    0.0807   -1.1875 C   0  0  0  0  0  0  0  0  0  0  0  0
    3.3721   -0.6161   -2.1457 C   0  0  0  0  0  0  0  0  0  0  0  0
    2.0350   -0.7632   -1.5826 N   0  0  0  0  0  0  0  0  0  0  0  0
    1.1138    0.2586   -1.7989 C   0  0  0  0  0  0  0  0  0  0  0  0
    1.3319    1.2494   -2.4922 O   0  0  0  0  0  0  0  0  0  0  0  0
   -0.2184    0.1141   -1.1572 C   0  0  0  0  0  0  0  0  0  0  0  0
   -1.1758    1.1267   -1.3045 C   0  0  0  0  0  0  0  0  0  0  0  0
   -2.4281    0.9947   -0.7034 C   0  0  0  0  0  0  0  0  0  0  0  0
   -2.7251   -0.1538    0.0401 C   0  0  0  0  0  0  0  0  0  0  0  0
   -4.0411   -0.3264    0.7108 C   0  0  0  0  0  0  0  0  0  0  0  0
   -4.1047   -0.9142    1.7830 O   0  0  0  0  0  0  0  0  0  0  0  0
   -5.1362    0.1863    0.0474 N   0  0  0  0  0  0  0  0  0  0  0  0
   -6.4704    0.1474    0.6307 C   0  0  0  0  0  0  0  0  0  0  0  0
   -6.6660    1.3171    1.5925 C   0  0  0  0  0  0  0  0  0  0  0  0
   -7.5268    0.1703   -0.4694 C   0  0  0  0  0  0  0  0  0  0  0  0
   -1.7584   -1.1598    0.1976 C   0  0  0  0  0  0  0  0  0  0  0  0
   -0.5028   -1.0322   -0.4069 C   0  0  0  0  0  0  0  0  0  0  0  0
    0.4988   -1.9991   -0.3034 N   0  0  0  0  0  0  0  0  0  0  0  0
    0.4954   -3.2179    0.3328 C   0  0  0  0  0  0  0  0  0  0  0  0
   -0.3873   -3.7749    0.9625 O   0  0  0  0  0  0  0  0  0  0  0  0
    1.7644   -3.7474    0.1006 N   0  0  0  0  0  0  0  0  0  0  0  0
    2.5157   -2.8924   -0.6564 N   0  0  0  0  0  0  0  0  0  0  0  0
    1.7216   -1.8805   -0.8622 C   0  0  0  0  0  0  0  0  0  0  0  0
    4.4063    1.4789   -1.1696 C   0  0  0  0  0  0  0  0  0  0  0  0
    5.2591    2.1246   -0.2712 C   0  0  0  0  0  0  0  0  0  0  0  0
    6.5827    3.0659    1.8556 H   0  0  0  0  0  0  0  0  0  0  0  0
    7.0813    1.5044    2.5048 H   0  0  0  0  0  0  0  0  0  0  0  0
    7.9456    2.1956    1.1093 H   0  0  0  0  0  0  0  0  0  0  0  0
    6.5383   -0.6065    1.3028 H   0  0  0  0  0  0  0  0  0  0  0  0
    5.0346   -1.7440   -0.2694 H   0  0  0  0  0  0  0  0  0  0  0  0
    3.3223   -0.0497   -3.0839 H   0  0  0  0  0  0  0  0  0  0  0  0
    3.7784   -1.5999   -2.4106 H   0  0  0  0  0  0  0  0  0  0  0  0
   -0.9439    2.0235   -1.8770 H   0  0  0  0  0  0  0  0  0  0  0  0
   -3.1449    1.8064   -0.7961 H   0  0  0  0  0  0  0  0  0  0  0  0
   -5.0202    0.6395   -0.8480 H   0  0  0  0  0  0  0  0  0  0  0  0
   -6.5703   -0.7881    1.1940 H   0  0  0  0  0  0  0  0  0  0  0  0
   -6.5486    2.2771    1.0773 H   0  0  0  0  0  0  0  0  0  0  0  0
   -7.6636    1.2900    2.0429 H   0  0  0  0  0  0  0  0  0  0  0  0
   -5.9296    1.2872    2.4027 H   0  0  0  0  0  0  0  0  0  0  0  0
   -8.5346    0.1092   -0.0459 H   0  0  0  0  0  0  0  0  0  0  0  0
   -7.4613    1.0871   -1.0659 H   0  0  0  0  0  0  0  0  0  0  0  0
   -7.3934   -0.6767   -1.1514 H   0  0  0  0  0  0  0  0  0  0  0  0
   -2.0108   -2.0324    0.7979 H   0  0  0  0  0  0  0  0  0  0  0  0
    2.1017   -4.6436    0.4263 H   0  0  0  0  0  0  0  0  0  0  0  0
    3.8114    2.0776   -1.8579 H   0  0  0  0  0  0  0  0  0  0  0  0
    5.3180    3.2107   -0.2837 H   0  0  0  0  0  0  0  0  0  0  0  0
  1  2  1  0
  2  3  2  0
  3  4  1  0
  4  5  2  0
  5  6  1  0
  6  7  1  0
  7  8  1  0
  8  9  2  0
  8 10  1  0
 10 11  2  0
 11 12  1  0
 12 13  2  0
 13 14  1  0
 14 15  2  0
 14 16  1  0
 16 17  1  0
 17 18  1  0
 17 19  1  0
 13 20  1  0
 20 21  2  0
 21 22  1  0
 22 23  1  0
 23 24  2  0
 23 25  1  0
 25 26  1  0
 26 27  2  0
  5 28  1  0
 28 29  2  0
 29  2  1  0
 27  7  1  0
 21 10  1  0
 27 22  1  0
  1 30  1  0
  1 31  1  0
  1 32  1  0
  3 33  1  0
  4 34  1  0
  6 35  1  0
  6 36  1  0
 11 37  1  0
 12 38  1  0
 16 39  1  0
 17 40  1  0
 18 41  1  0
 18 42  1  0
 18 43  1  0
 19 44  1  0
 19 45  1  0
 19 46  1  0
 20 47  1  0
 25 48  1  0
 28 49  1  0
 29 50  1  0
M  END
$$$$
