
     RDKit          3D

 48 51  0  0  0  0  0  0  0  0999 V2000
    6.6537    2.0271    1.8509 C   0  0  0  0  0  0  0  0  0  0  0  0
    5.3199    1.3426    1.6066 C   0  0  0  0  0  0  0  0  0  0  0  0
    5.0984    1.0379   -0.1707 S   0  0  0  0  0  0  0  0  0  0  0  0
    3.4758    0.4184   -0.1788 C   0  0  0  0  0  0  0  0  0  0  0  0
    2.8897   -0.0435    0.8713 N   0  0  0  0  0  0  0  0  0  0  0  0
    1.5984   -0.4898    0.7266 C   0  0  0  0  0  0  0  0  0  0  0  0
    0.9475   -0.4798   -0.4580 C   0  0  0  0  0  0  0  0  0  0  0  0
    1.6838   -0.0389   -1.6543 C   0  0  0  0  0  0  0  0  0  0  0  0
    1.2415   -0.1512   -2.7901 O   0  0  0  0  0  0  0  0  0  0  0  0
    2.9181    0.4734   -1.4107 N   0  0  0  0  0  0  0  0  0  0  0  0
   -0.4931   -0.9385   -0.6106 C   0  0  0  0  0  0  0  0  0  0  0  0
   -1.4088    0.2546   -0.9091 C   0  0  0  0  0  0  0  0  0  0  0  0
   -1.5681    1.3090    0.0058 C   0  0  0  0  0  0  0  0  0  0  0  0
   -2.4029    2.3850   -0.2941 C   0  0  0  0  0  0  0  0  0  0  0  0
   -3.0912    2.4265   -1.5093 C   0  0  0  0  0  0  0  0  0  0  0  0
   -2.9456    1.3921   -2.4322 C   0  0  0  0  0  0  0  0  0  0  0  0
   -3.5564    1.3145   -3.6539 O   0  0  0  0  0  0  0  0  0  0  0  0
   -4.4078    2.3924   -4.0184 C   0  0  0  0  0  0  0  0  0  0  0  0
   -2.1079    0.3144   -2.1263 C   0  0  0  0  0  0  0  0  0  0  0  0
   -0.9738   -1.6973    0.6197 C   0  0  0  0  0  0  0  0  0  0  0  0
   -0.2719   -1.6779    1.7724 C   0  0  0  0  0  0  0  0  0  0  0  0
   -0.7101   -2.4038    3.0201 C   0  0  0  0  0  0  0  0  0  0  0  0
   -1.7257   -3.5062    2.7360 C   0  0  0  0  0  0  0  0  0  0  0  0
   -2.8268   -3.0177    1.8109 C   0  0  0  0  0  0  0  0  0  0  0  0
   -2.2374   -2.4781    0.5278 C   0  0  0  0  0  0  0  0  0  0  0  0
   -2.7966   -2.6505   -0.5538 O   0  0  0  0  0  0  0  0  0  0  0  0
    0.9256   -0.9876    1.8298 N   0  0  0  0  0  0  0  0  0  0  0  0
    6.7095    2.9951    1.3412 H   0  0  0  0  0  0  0  0  0  0  0  0
    7.4904    1.4073    1.5116 H   0  0  0  0  0  0  0  0  0  0  0  0
    6.7872    2.2087    2.9220 H   0  0  0  0  0  0  0  0  0  0  0  0
    5.2915    0.3908    2.1474 H   0  0  0  0  0  0  0  0  0  0  0  0
    4.5080    1.9805    1.9736 H   0  0  0  0  0  0  0  0  0  0  0  0
    3.4663    0.7879   -2.1962 H   0  0  0  0  0  0  0  0  0  0  0  0
   -0.5200   -1.6428   -1.4542 H   0  0  0  0  0  0  0  0  0  0  0  0
   -1.0428    1.2996    0.9583 H   0  0  0  0  0  0  0  0  0  0  0  0
   -2.5187    3.1976    0.4196 H   0  0  0  0  0  0  0  0  0  0  0  0
   -3.7317    3.2784   -1.7024 H   0  0  0  0  0  0  0  0  0  0  0  0
   -3.8536    3.3356   -4.0695 H   0  0  0  0  0  0  0  0  0  0  0  0
   -4.8018    2.1842   -5.0182 H   0  0  0  0  0  0  0  0  0  0  0  0
   -5.2598    2.4708   -3.3341 H   0  0  0  0  0  0  0  0  0  0  0  0
   -2.0028   -0.4907   -2.8533 H   0  0  0  0  0  0  0  0  0  0  0  0
   -1.1398   -1.6721    3.7152 H   0  0  0  0  0  0  0  0  0  0  0  0
    0.1567   -2.8531    3.5207 H   0  0  0  0  0  0  0  0  0  0  0  0
   -1.2129   -4.3589    2.2728 H   0  0  0  0  0  0  0  0  0  0  0  0
   -2.1561   -3.8655    3.6763 H   0  0  0  0  0  0  0  0  0  0  0  0
   -3.4945   -3.8515    1.5666 H   0  0  0  0  0  0  0  0  0  0  0  0
   -3.4198   -2.2253    2.2787 H   0  0  0  0  0  0  0  0  0  0  0  0
    1.5165   -1.1037    2.6478 H   0  0  0  0  0  0  0  0  0  0  0  0
  1  2  1  0
  2  3  1  0
  3  4  1  0
  4  5  2  0
  5  6  1  0
  6  7  2  0
  7  8  1  0
  8  9  2  0
  8 10  1  0
  7 11  1  0
 11 12  1  0
 12 13  2  0
 13 14  1  0
 14 15  2  0
 15 16  1  0
 16 17  1  0
 17 18  1  0
 16 19  2  0
 11 20  1  0
 20 21  2  0
 21 22  1  0
 22 23  1  0
 23 24  1  0
 24 25  1  0
 25 26  2  0
 21 27  1  0
 10  4  1  0
 19 12  1  0
 25 20  1  0
 27  6  1  0
  1 28  1  0
  1 29  1  0
  1 30  1  0
  2 31  1  0
  2 32  1  0
 10 33  1  0
 11 34  1  0
 13 35  1  0
 14 36  1  0
 15 37  1  0
 18 38  1  0
 18 39  1  0
 18 40  1  0
 19 41  1  0
 22 42  1  0
 22 43  1  0
 23 44  1  0
 23 45  1  0
 24 46  1  0
 24 47  1  0
 27 48  1  0
M  END
$$$$
