
     RDKit          3D

 62 64  0  0  0  0  0  0  0  0999 V2000
    4.2787   -2.0000    2.9283 C   0  0  0  0  0  0  0  0  0  0  0  0
    4.9110   -1.6606    1.7003 O   0  0  0  0  0  0  0  0  0  0  0  0
    4.3626   -2.3413    0.5747 C   0  0  0  0  0  0  0  0  0  0  0  0
    2.9976   -1.8028    0.1572 C   0  0  0  0  0  0  0  0  0  0  0  0
    3.0116   -0.2878   -0.0360 C   0  0  0  0  0  0  0  0  0  0  0  0
    1.7513    0.1891   -0.5762 N   0  0  0  0  0  0  0  0  0  0  0  0
    0.6345    0.3450    0.2227 C   0  0  0  0  0  0  0  0  0  0  0  0
    0.6568    0.1934    1.4416 O   0  0  0  0  0  0  0  0  0  0  0  0
   -0.6335    0.7351   -0.5403 C   0  0  0  0  0  0  0  0  0  0  0  0
   -1.1545    2.1068   -0.1584 C   0  0  0  0  0  0  0  0  0  0  0  0
   -0.2852    3.1594    0.1829 C   0  0  0  0  0  0  0  0  0  0  0  0
   -0.7784    4.4335    0.4912 C   0  0  0  0  0  0  0  0  0  0  0  0
    0.0189    5.4973    0.8344 O   0  0  0  0  0  0  0  0  0  0  0  0
    1.3070    5.1925    1.3537 C   0  0  0  0  0  0  0  0  0  0  0  0
   -2.1594    4.6847    0.4160 C   0  0  0  0  0  0  0  0  0  0  0  0
   -2.5590    5.9640    0.7111 O   0  0  0  0  0  0  0  0  0  0  0  0
   -3.9450    6.2609    0.6096 C   0  0  0  0  0  0  0  0  0  0  0  0
   -3.0241    3.6473    0.0591 C   0  0  0  0  0  0  0  0  0  0  0  0
   -2.5285    2.3649   -0.2285 C   0  0  0  0  0  0  0  0  0  0  0  0
   -3.4989    1.3077   -0.6338 C   0  0  0  0  0  0  0  0  0  0  0  0
   -4.6762    1.6179   -0.7982 O   0  0  0  0  0  0  0  0  0  0  0  0
   -3.0192    0.0047   -0.8117 N   0  0  0  0  0  0  0  0  0  0  0  0
   -4.0362   -1.0374   -0.9264 C   0  0  0  0  0  0  0  0  0  0  0  0
   -1.6948   -0.3601   -0.2679 C   0  0  0  0  0  0  0  0  0  0  0  0
   -1.1907   -1.7068   -0.7927 C   0  0  0  0  0  0  0  0  0  0  0  0
   -0.9015   -2.7428    0.1071 C   0  0  0  0  0  0  0  0  0  0  0  0
   -0.3947   -3.9643   -0.3485 C   0  0  0  0  0  0  0  0  0  0  0  0
   -0.1559   -4.1712   -1.7091 C   0  0  0  0  0  0  0  0  0  0  0  0
    0.4894   -5.7008   -2.3658 S   0  0  0  0  0  0  0  0  0  0  0  0
    1.7012   -6.1601   -1.0981 C   0  0  0  0  0  0  0  0  0  0  0  0
   -0.4667   -3.1489   -2.6121 C   0  0  0  0  0  0  0  0  0  0  0  0
   -0.9753   -1.9275   -2.1615 C   0  0  0  0  0  0  0  0  0  0  0  0
    3.2427   -1.6515    2.9442 H   0  0  0  0  0  0  0  0  0  0  0  0
    4.3184   -3.0802    3.0976 H   0  0  0  0  0  0  0  0  0  0  0  0
    4.8192   -1.5013    3.7377 H   0  0  0  0  0  0  0  0  0  0  0  0
    5.0688   -2.2033   -0.2520 H   0  0  0  0  0  0  0  0  0  0  0  0
    4.3117   -3.4187    0.7724 H   0  0  0  0  0  0  0  0  0  0  0  0
    2.6881   -2.2972   -0.7716 H   0  0  0  0  0  0  0  0  0  0  0  0
    2.2473   -2.0655    0.9115 H   0  0  0  0  0  0  0  0  0  0  0  0
    3.2004    0.2259    0.9131 H   0  0  0  0  0  0  0  0  0  0  0  0
    3.7918    0.0034   -0.7471 H   0  0  0  0  0  0  0  0  0  0  0  0
    1.6381    0.1605   -1.5818 H   0  0  0  0  0  0  0  0  0  0  0  0
   -0.4147    0.7877   -1.6156 H   0  0  0  0  0  0  0  0  0  0  0  0
    0.7854    2.9781    0.1974 H   0  0  0  0  0  0  0  0  0  0  0  0
    1.2561    4.4397    2.1481 H   0  0  0  0  0  0  0  0  0  0  0  0
    1.7166    6.1089    1.7896 H   0  0  0  0  0  0  0  0  0  0  0  0
    1.9825    4.8754    0.5527 H   0  0  0  0  0  0  0  0  0  0  0  0
   -4.0783    7.3191    0.8536 H   0  0  0  0  0  0  0  0  0  0  0  0
   -4.5269    5.6777    1.3306 H   0  0  0  0  0  0  0  0  0  0  0  0
   -4.3091    6.1079   -0.4115 H   0  0  0  0  0  0  0  0  0  0  0  0
   -4.0956    3.8106   -0.0081 H   0  0  0  0  0  0  0  0  0  0  0  0
   -4.2418   -1.4388    0.0709 H   0  0  0  0  0  0  0  0  0  0  0  0
   -4.9685   -0.6436   -1.3417 H   0  0  0  0  0  0  0  0  0  0  0  0
   -3.6965   -1.8363   -1.5885 H   0  0  0  0  0  0  0  0  0  0  0  0
   -1.8545   -0.4431    0.8176 H   0  0  0  0  0  0  0  0  0  0  0  0
   -1.0598   -2.6050    1.1760 H   0  0  0  0  0  0  0  0  0  0  0  0
   -0.2033   -4.7466    0.3803 H   0  0  0  0  0  0  0  0  0  0  0  0
    2.3093   -6.9873   -1.4742 H   0  0  0  0  0  0  0  0  0  0  0  0
    1.2009   -6.4945   -0.1857 H   0  0  0  0  0  0  0  0  0  0  0  0
    2.3641   -5.3209   -0.8697 H   0  0  0  0  0  0  0  0  0  0  0  0
   -0.3174   -3.2965   -3.6802 H   0  0  0  0  0  0  0  0  0  0  0  0
   -1.2179   -1.1562   -2.8904 H   0  0  0  0  0  0  0  0  0  0  0  0
  1  2  1  0
  2  3  1  0
  3  4  1  0
  4  5  1  0
  5  6  1  0
  6  7  1  0
  7  8  2  0
  7  9  1  0
  9 10  1  0
 10 11  2  0
 11 12  1  0
 12 13  1  0
 13 14  1  0
 12 15  2  0
 15 16  1  0
 16 17  1  0
 15 18  1  0
 18 19  2  0
 19 20  1  0
 20 21  2  0
 20 22  1  0
 22 23  1  0
 22 24  1  0
 24 25  1  0
 25 26  2  0
 26 27  1  0
 27 28  2  0
 28 29  1  0
 29 30  1  0
 28 31  1  0
 31 32  2  0
 24  9  1  0
 32 25  1  0
 19 10  1  0
  1 33  1  0
  1 34  1  0
  1 35  1  0
  3 36  1  0
  3 37  1  0
  4 38  1  0
  4 39  1  0
  5 40  1  0
  5 41  1  0
  6 42  1  0
  9 43  1  0
 11 44  1  0
 14 45  1  0
 14 46  1  0
 14 47  1  0
 17 48  1  0
 17 49  1  0
 17 50  1  0
 18 51  1  0
 23 52  1  0
 23 53  1  0
 23 54  1  0
 24 55  1  0
 26 56  1  0
 27 57  1  0
 30 58  1  0
 30 59  1  0
 30 60  1  0
 31 61  1  0
 32 62  1  0
M  END
$$$$
