
     RDKit          3D

 43 43  0  0  0  0  0  0  0  0999 V2000
   -2.4762    0.9105   -3.9445 C   0  0  0  0  0  0  0  0  0  0  0  0
   -1.7133    0.3205   -2.9166 O   0  0  0  0  0  0  0  0  0  0  0  0
   -1.8537    0.7893   -1.6269 C   0  0  0  0  0  0  0  0  0  0  0  0
   -2.7295    1.8153   -1.3781 C   0  0  0  0  0  0  0  0  0  0  0  0
   -2.8886    2.3025   -0.1015 C   0  0  0  0  0  0  0  0  0  0  0  0
   -2.1461    1.7300    0.9057 C   0  0  0  0  0  0  0  0  0  0  0  0
   -1.2739    0.7013    0.6290 C   0  0  0  0  0  0  0  0  0  0  0  0
   -1.0953    0.1942   -0.6413 C   0  0  0  0  0  0  0  0  0  0  0  0
   -0.1906   -0.9020   -0.9959 C   0  0  0  0  0  0  0  0  0  0  0  0
    0.6766   -1.3713    0.1368 C   0  0  0  0  0  0  0  0  0  0  0  0
    1.5312   -0.2906    0.6388 N   0  0  0  0  0  0  0  0  0  0  0  0
    2.4116   -0.5916    1.7118 C   0  0  0  0  0  0  0  0  0  0  0  0
    2.4095   -1.7853    2.1795 O   0  0  0  0  0  0  0  0  0  0  0  0
    3.3004    0.4105    2.2804 C   0  0  0  0  0  0  0  0  0  0  0  0
    3.5234    1.7264    1.9969 C   0  0  0  0  0  0  0  0  0  0  0  0
    4.4048    2.4335    2.6713 C   0  0  0  0  0  0  0  0  0  0  0  0
    5.1505    1.8663    3.7074 C   0  0  0  0  0  0  0  0  0  0  0  0
    4.4578    0.1440    3.6434 S   0  0  0  0  0  0  0  0  0  0  0  0
   -1.0180   -2.0222   -1.4137 N   0  0  0  0  0  0  0  0  0  0  0  0
   -0.2614   -3.1365   -1.9111 C   0  0  0  0  0  0  0  0  0  0  0  0
   -2.0341   -2.4050   -0.5063 C   0  0  0  0  0  0  0  0  0  0  0  0
    0.6863    0.0000    0.0000 Cl  0  0  0  0  0  0  0  0  0  0  0  0
   -2.2001    0.5206   -4.9483 H   0  0  0  0  0  0  0  0  0  0  0  0
   -2.3248    2.0301   -3.9774 H   0  0  0  0  0  0  0  0  0  0  0  0
   -3.5511    0.7618   -3.7164 H   0  0  0  0  0  0  0  0  0  0  0  0
   -3.3073    2.2492   -2.2104 H   0  0  0  0  0  0  0  0  0  0  0  0
   -3.5861    3.1149    0.0750 H   0  0  0  0  0  0  0  0  0  0  0  0
   -2.2752    2.1149    1.9031 H   0  0  0  0  0  0  0  0  0  0  0  0
   -0.7046    0.2697    1.4372 H   0  0  0  0  0  0  0  0  0  0  0  0
    0.4738   -0.6682   -1.8563 H   0  0  0  0  0  0  0  0  0  0  0  0
    0.1302   -1.8689    0.9420 H   0  0  0  0  0  0  0  0  0  0  0  0
    1.3969   -2.1121   -0.2755 H   0  0  0  0  0  0  0  0  0  0  0  0
    1.5430    0.6616    0.2783 H   0  0  0  0  0  0  0  0  0  0  0  0
    2.9083    2.1761    1.1502 H   0  0  0  0  0  0  0  0  0  0  0  0
    4.6251    3.5221    2.4767 H   0  0  0  0  0  0  0  0  0  0  0  0
    5.8661    2.1820    4.3580 H   0  0  0  0  0  0  0  0  0  0  0  0
   -0.8506   -3.7822   -2.5848 H   0  0  0  0  0  0  0  0  0  0  0  0
    0.6455   -2.7627   -2.4316 H   0  0  0  0  0  0  0  0  0  0  0  0
    0.0914   -3.7779   -1.0583 H   0  0  0  0  0  0  0  0  0  0  0  0
   -1.8850   -2.0669    0.5383 H   0  0  0  0  0  0  0  0  0  0  0  0
   -2.1809   -3.4931   -0.5365 H   0  0  0  0  0  0  0  0  0  0  0  0
   -2.9994   -1.9109   -0.8266 H   0  0  0  0  0  0  0  0  0  0  0  0
   -0.6863    0.0000    0.0000 H   0  0  0  0  0  0  0  0  0  0  0  0
  1  2  1  0
  2  3  1  0
  3  4  2  0
  4  5  1  0
  5  6  2  0
  6  7  1  0
  7  8  2  0
  8  9  1  0
  9 10  1  0
 10 11  1  0
 11 12  1  0
 12 13  2  0
 12 14  1  0
 14 15  2  0
 15 16  1  0
 16 17  2  0
 17 18  1  0
  9 19  1  0
 19 20  1  0
 19 21  1  0
  8  3  1  0
 18 14  1  0
  1 23  1  0
  1 24  1  0
  1 25  1  0
  4 26  1  0
  5 27  1  0
  6 28  1  0
  7 29  1  0
  9 30  1  0
 10 31  1  0
 10 32  1  0
 11 33  1  0
 15 34  1  0
 16 35  1  0
 17 36  1  0
 20 37  1  0
 20 38  1  0
 20 39  1  0
 21 40  1  0
 21 41  1  0
 21 42  1  0
 22 43  1  0
M  END
$$$$
