
     RDKit          3D

 57 59  0  0  0  0  0  0  0  0999 V2000
    8.4985    1.8064    0.7114 C   0  0  0  0  0  0  0  0  0  0  0  0
    7.1949    1.7144    1.2704 O   0  0  0  0  0  0  0  0  0  0  0  0
    6.4126    0.6720    0.8593 C   0  0  0  0  0  0  0  0  0  0  0  0
    6.7825   -0.3277   -0.0359 C   0  0  0  0  0  0  0  0  0  0  0  0
    5.8787   -1.3431   -0.3759 C   0  0  0  0  0  0  0  0  0  0  0  0
    4.5970   -1.3790    0.1830 C   0  0  0  0  0  0  0  0  0  0  0  0
    3.6715   -2.3233   -0.1659 O   0  0  0  0  0  0  0  0  0  0  0  0
    4.1840   -3.6269   -0.4338 C   0  0  0  0  0  0  0  0  0  0  0  0
    4.2239   -0.3640    1.0690 C   0  0  0  0  0  0  0  0  0  0  0  0
    2.6302   -0.3607    1.8510 S   0  0  0  0  0  6  0  0  0  0  0  0
    2.2056   -1.7168    2.1217 O   0  0  0  0  0  0  0  0  0  0  0  0
    2.6678    0.6158    2.9200 O   0  0  0  0  0  0  0  0  0  0  0  0
    1.6403    0.3049    0.6868 N   0  0  0  0  0  0  0  0  0  0  0  0
    1.0968   -0.5667   -0.3601 C   0  0  0  0  0  0  0  0  0  0  0  0
   -0.1719    0.0350   -0.8994 C   0  0  0  0  0  0  0  0  0  0  0  0
   -0.7334   -0.3808   -2.0798 N   0  0  0  0  0  0  0  0  0  0  0  0
   -1.8150    0.3532   -2.1976 C   0  0  0  0  0  0  0  0  0  0  0  0
   -2.7069    0.2632   -3.2060 N   0  0  0  0  0  0  0  0  0  0  0  0
   -1.8896    1.2187   -1.1189 N   0  0  0  0  0  0  0  0  0  0  0  0
   -3.2618    2.2052   -0.8254 S   0  0  0  0  0  6  0  0  0  0  0  0
   -3.6691    2.6392   -2.1545 O   0  0  0  0  0  0  0  0  0  0  0  0
   -2.8562    3.1464    0.2041 O   0  0  0  0  0  0  0  0  0  0  0  0
   -4.4795    1.1176   -0.1211 C   0  0  0  0  0  0  0  0  0  0  0  0
   -4.0618    0.0102    0.6407 C   0  0  0  0  0  0  0  0  0  0  0  0
   -5.0057   -0.8580    1.1853 C   0  0  0  0  0  0  0  0  0  0  0  0
   -4.7402   -1.9707    1.9323 O   0  0  0  0  0  0  0  0  0  0  0  0
   -3.3723   -2.3057    2.1419 C   0  0  0  0  0  0  0  0  0  0  0  0
   -6.3612   -0.6030    0.9810 C   0  0  0  0  0  0  0  0  0  0  0  0
   -6.7800    0.5131    0.2501 C   0  0  0  0  0  0  0  0  0  0  0  0
   -5.8437    1.3920   -0.3028 C   0  0  0  0  0  0  0  0  0  0  0  0
   -6.1748    2.5203   -0.9971 O   0  0  0  0  0  0  0  0  0  0  0  0
   -7.5510    2.8433   -1.1393 C   0  0  0  0  0  0  0  0  0  0  0  0
   -0.8643    0.9806   -0.2453 N   0  0  0  0  0  0  0  0  0  0  0  0
    5.1328    0.6488    1.4121 C   0  0  0  0  0  0  0  0  0  0  0  0
    8.9792    2.6964    1.1279 H   0  0  0  0  0  0  0  0  0  0  0  0
    8.4539    1.9296   -0.3758 H   0  0  0  0  0  0  0  0  0  0  0  0
    9.1074    0.9396    0.9861 H   0  0  0  0  0  0  0  0  0  0  0  0
    7.7649   -0.3463   -0.4943 H   0  0  0  0  0  0  0  0  0  0  0  0
    6.1969   -2.0872   -1.0994 H   0  0  0  0  0  0  0  0  0  0  0  0
    3.3470   -4.3302   -0.3719 H   0  0  0  0  0  0  0  0  0  0  0  0
    4.5898   -3.6761   -1.4502 H   0  0  0  0  0  0  0  0  0  0  0  0
    4.9359   -3.9333    0.3029 H   0  0  0  0  0  0  0  0  0  0  0  0
    1.0061    1.0261    1.0403 H   0  0  0  0  0  0  0  0  0  0  0  0
    1.8233   -0.6589   -1.1728 H   0  0  0  0  0  0  0  0  0  0  0  0
    0.8535   -1.5618    0.0236 H   0  0  0  0  0  0  0  0  0  0  0  0
   -2.3886   -0.2385   -4.0309 H   0  0  0  0  0  0  0  0  0  0  0  0
   -3.2569    1.0916   -3.4550 H   0  0  0  0  0  0  0  0  0  0  0  0
   -3.0067   -0.1569    0.8288 H   0  0  0  0  0  0  0  0  0  0  0  0
   -3.3417   -3.2316    2.7247 H   0  0  0  0  0  0  0  0  0  0  0  0
   -2.8615   -1.5274    2.7221 H   0  0  0  0  0  0  0  0  0  0  0  0
   -2.8589   -2.4916    1.1900 H   0  0  0  0  0  0  0  0  0  0  0  0
   -7.1043   -1.2741    1.4079 H   0  0  0  0  0  0  0  0  0  0  0  0
   -7.8501    0.6670    0.1403 H   0  0  0  0  0  0  0  0  0  0  0  0
   -8.0784    2.0726   -1.7109 H   0  0  0  0  0  0  0  0  0  0  0  0
   -7.6156    3.7797   -1.7022 H   0  0  0  0  0  0  0  0  0  0  0  0
   -8.0236    3.0062   -0.1640 H   0  0  0  0  0  0  0  0  0  0  0  0
    4.8498    1.4312    2.1138 H   0  0  0  0  0  0  0  0  0  0  0  0
  1  2  1  0
  2  3  1  0
  3  4  2  0
  4  5  1  0
  5  6  2  0
  6  7  1  0
  7  8  1  0
  6  9  1  0
  9 10  1  0
 10 11  2  0
 10 12  2  0
 10 13  1  0
 13 14  1  0
 14 15  1  0
 15 16  1  0
 16 17  2  0
 17 18  1  0
 17 19  1  0
 19 20  1  0
 20 21  2  0
 20 22  2  0
 20 23  1  0
 23 24  2  0
 24 25  1  0
 25 26  1  0
 26 27  1  0
 25 28  2  0
 28 29  1  0
 29 30  2  0
 30 31  1  0
 31 32  1  0
 19 33  1  0
  9 34  2  0
 34  3  1  0
 33 15  2  0
 30 23  1  0
  1 35  1  0
  1 36  1  0
  1 37  1  0
  4 38  1  0
  5 39  1  0
  8 40  1  0
  8 41  1  0
  8 42  1  0
 13 43  1  0
 14 44  1  0
 14 45  1  0
 18 46  1  0
 18 47  1  0
 24 48  1  0
 27 49  1  0
 27 50  1  0
 27 51  1  0
 28 52  1  0
 29 53  1  0
 32 54  1  0
 32 55  1  0
 32 56  1  0
 34 57  1  0
M  END
$$$$
