
     RDKit          3D

 33 34  0  0  0  0  0  0  0  0999 V2000
    2.6680    2.2160   -0.4068 C   0  0  0  0  0  0  0  0  0  0  0  0
    2.5929    0.9405    0.4238 C   0  0  0  0  0  0  0  0  0  0  0  0
    2.3087   -0.3087   -0.4292 C   0  0  0  0  0  0  0  0  0  0  0  0
    2.3333   -1.6064    0.4010 C   0  0  0  0  0  0  0  0  0  0  0  0
    3.7350   -2.0146    0.8330 C   0  0  0  0  0  0  0  0  0  0  0  0
    0.9754   -0.1993   -1.1807 C   0  0  0  0  0  0  0  0  0  0  0  0
    0.9667   -0.1993   -2.4077 O   0  0  0  0  0  0  0  0  0  0  0  0
   -0.1237   -0.1079   -0.3523 N   0  0  0  0  0  0  0  0  0  0  0  0
   -1.4342    0.0081   -0.7862 C   0  0  0  0  0  0  0  0  0  0  0  0
   -1.8340    0.0506   -2.0617 N   0  0  0  0  0  0  0  0  0  0  0  0
   -3.2102    0.1703   -2.0373 O   0  0  0  0  0  0  0  0  0  0  0  0
   -3.6399    0.2003   -0.7509 C   0  0  0  0  0  0  0  0  0  0  0  0
   -4.9615    0.3131   -0.3279 C   0  0  0  0  0  0  0  0  0  0  0  0
   -5.1689    0.3233    1.0553 C   0  0  0  0  0  0  0  0  0  0  0  0
   -4.0974    0.2248    1.9480 C   0  0  0  0  0  0  0  0  0  0  0  0
   -2.7770    0.1123    1.4860 C   0  0  0  0  0  0  0  0  0  0  0  0
   -2.5510    0.1004    0.0961 C   0  0  0  0  0  0  0  0  0  0  0  0
    3.4260    2.1288   -1.1916 H   0  0  0  0  0  0  0  0  0  0  0  0
    1.7074    2.4463   -0.8774 H   0  0  0  0  0  0  0  0  0  0  0  0
    2.9376    3.0639    0.2311 H   0  0  0  0  0  0  0  0  0  0  0  0
    1.8296    1.0667    1.2003 H   0  0  0  0  0  0  0  0  0  0  0  0
    3.5506    0.8233    0.9428 H   0  0  0  0  0  0  0  0  0  0  0  0
    3.0888   -0.3832   -1.1998 H   0  0  0  0  0  0  0  0  0  0  0  0
    1.9057   -2.4256   -0.1911 H   0  0  0  0  0  0  0  0  0  0  0  0
    1.7020   -1.5061    1.2921 H   0  0  0  0  0  0  0  0  0  0  0  0
    4.1740   -1.2850    1.5192 H   0  0  0  0  0  0  0  0  0  0  0  0
    3.7012   -2.9782    1.3516 H   0  0  0  0  0  0  0  0  0  0  0  0
    4.3978   -2.1201   -0.0316 H   0  0  0  0  0  0  0  0  0  0  0  0
    0.0084   -0.1243    0.6465 H   0  0  0  0  0  0  0  0  0  0  0  0
   -5.7785    0.3884   -1.0354 H   0  0  0  0  0  0  0  0  0  0  0  0
   -6.1831    0.4096    1.4414 H   0  0  0  0  0  0  0  0  0  0  0  0
   -4.2914    0.2356    3.0192 H   0  0  0  0  0  0  0  0  0  0  0  0
   -1.9585    0.0368    2.1946 H   0  0  0  0  0  0  0  0  0  0  0  0
  1  2  1  0
  2  3  1  0
  3  4  1  0
  4  5  1  0
  3  6  1  0
  6  7  2  0
  6  8  1  0
  8  9  1  0
  9 10  2  0
 10 11  1  0
 11 12  1  0
 12 13  2  0
 13 14  1  0
 14 15  2  0
 15 16  1  0
 16 17  2  0
 17  9  1  0
 17 12  1  0
  1 18  1  0
  1 19  1  0
  1 20  1  0
  2 21  1  0
  2 22  1  0
  3 23  1  0
  4 24  1  0
  4 25  1  0
  5 26  1  0
  5 27  1  0
  5 28  1  0
  8 29  1  0
 13 30  1  0
 14 31  1  0
 15 32  1  0
 16 33  1  0
M  END
$$$$
