
     RDKit          3D

 27 28  0  0  0  0  0  0  0  0999 V2000
    3.4480    0.6586    1.2894 C   0  0  0  0  0  0  0  0  0  0  0  0
    2.8681   -0.6383    1.8332 C   0  0  0  0  0  0  0  0  0  0  0  0
    2.5443   -1.6097    0.7565 C   0  0  0  0  0  0  0  0  0  0  0  0
    3.3984   -2.5905    0.4548 N   0  0  0  0  0  0  0  0  0  0  0  0
    2.7812   -3.2917   -0.5746 O   0  0  0  0  0  0  0  0  0  0  0  0
    1.5565   -2.7310   -0.8981 N   0  0  0  0  0  0  0  0  0  0  0  0
    1.4020   -1.6931   -0.0776 C   0  0  0  0  0  0  0  0  0  0  0  0
    0.3203   -0.8271   -0.0489 N   0  0  0  0  0  0  0  0  0  0  0  0
   -0.8075   -0.9706   -0.8299 C   0  0  0  0  0  0  0  0  0  0  0  0
   -1.0630   -1.8873   -1.5991 O   0  0  0  0  0  0  0  0  0  0  0  0
   -1.8245    0.1055   -0.6584 C   0  0  0  0  0  0  0  0  0  0  0  0
   -3.1806   -0.2412   -0.7317 C   0  0  0  0  0  0  0  0  0  0  0  0
   -4.1656    0.7373   -0.5755 C   0  0  0  0  0  0  0  0  0  0  0  0
   -3.7946    2.0630   -0.3579 C   0  0  0  0  0  0  0  0  0  0  0  0
   -5.0051    3.2694   -0.1655 Cl  0  0  0  0  0  0  0  0  0  0  0  0
   -2.4470    2.4208   -0.3030 C   0  0  0  0  0  0  0  0  0  0  0  0
   -1.4583    1.4440   -0.4575 C   0  0  0  0  0  0  0  0  0  0  0  0
    2.7423    1.1587    0.6174 H   0  0  0  0  0  0  0  0  0  0  0  0
    4.3712    0.4744    0.7294 H   0  0  0  0  0  0  0  0  0  0  0  0
    3.6788    1.3447    2.1104 H   0  0  0  0  0  0  0  0  0  0  0  0
    3.5827   -1.0827    2.5370 H   0  0  0  0  0  0  0  0  0  0  0  0
    1.9638   -0.4163    2.4121 H   0  0  0  0  0  0  0  0  0  0  0  0
    0.3537   -0.0905    0.6384 H   0  0  0  0  0  0  0  0  0  0  0  0
   -3.4713   -1.2752   -0.9122 H   0  0  0  0  0  0  0  0  0  0  0  0
   -5.2150    0.4587   -0.6310 H   0  0  0  0  0  0  0  0  0  0  0  0
   -2.1630    3.4599   -0.1540 H   0  0  0  0  0  0  0  0  0  0  0  0
   -0.4157    1.7499   -0.4543 H   0  0  0  0  0  0  0  0  0  0  0  0
  1  2  1  0
  2  3  1  0
  3  4  2  0
  4  5  1  0
  5  6  1  0
  6  7  2  0
  7  8  1  0
  8  9  1  0
  9 10  2  0
  9 11  1  0
 11 12  2  0
 12 13  1  0
 13 14  2  0
 14 15  1  0
 14 16  1  0
 16 17  2  0
  7  3  1  0
 17 11  1  0
  1 18  1  0
  1 19  1  0
  1 20  1  0
  2 21  1  0
  2 22  1  0
  8 23  1  0
 12 24  1  0
 13 25  1  0
 16 26  1  0
 17 27  1  0
M  END
$$$$
