
     RDKit          3D

 41 43  0  0  0  0  0  0  0  0999 V2000
    2.2310   -2.3630    0.5014 C   0  0  0  0  0  0  0  0  0  0  0  0
    1.7776   -0.9080    0.3490 C   0  0  0  0  0  0  0  0  0  0  0  0
    0.7665   -0.8035   -0.8098 C   0  0  0  0  0  0  0  0  0  0  0  0
    1.1188   -0.4472   -1.9377 O   0  0  0  0  0  0  0  0  0  0  0  0
   -0.5623   -1.1813   -0.5684 N   0  0  0  0  0  0  0  0  0  0  0  0
   -1.5162   -0.9973   -1.6665 C   0  0  0  0  0  0  0  0  0  0  0  0
   -2.1081    0.4157   -1.6933 C   0  0  0  0  0  0  0  0  0  0  0  0
   -3.1793    0.6488   -0.6411 C   0  0  0  0  0  0  0  0  0  0  0  0
   -4.3896    1.0500   -1.1650 N   0  0  0  0  0  0  0  0  0  0  0  0
   -5.3498    1.2863   -0.3417 C   0  0  0  0  0  0  0  0  0  0  0  0
   -5.2442    1.1543    1.0048 N   0  0  0  0  0  0  0  0  0  0  0  0
   -4.0940    0.7316    1.5955 C   0  0  0  0  0  0  0  0  0  0  0  0
   -4.0197    0.5671    2.8082 O   0  0  0  0  0  0  0  0  0  0  0  0
   -2.9531    0.4753    0.6784 C   0  0  0  0  0  0  0  0  0  0  0  0
   -1.6556    0.0302    1.3036 C   0  0  0  0  0  0  0  0  0  0  0  0
   -1.1577   -1.3142    0.7628 C   0  0  0  0  0  0  0  0  0  0  0  0
    2.9657    0.0397    0.2086 C   0  0  0  0  0  0  0  0  0  0  0  0
    3.9239   -0.1187   -0.8048 C   0  0  0  0  0  0  0  0  0  0  0  0
    5.0083    0.7550   -0.9067 C   0  0  0  0  0  0  0  0  0  0  0  0
    5.1516    1.7999    0.0025 C   0  0  0  0  0  0  0  0  0  0  0  0
    4.2079    1.9750    1.0115 C   0  0  0  0  0  0  0  0  0  0  0  0
    3.1217    1.1029    1.1137 C   0  0  0  0  0  0  0  0  0  0  0  0
    2.9444   -2.4684    1.3262 H   0  0  0  0  0  0  0  0  0  0  0  0
    1.3829   -3.0253    0.7037 H   0  0  0  0  0  0  0  0  0  0  0  0
    2.7123   -2.7356   -0.4098 H   0  0  0  0  0  0  0  0  0  0  0  0
    1.2730   -0.6163    1.2750 H   0  0  0  0  0  0  0  0  0  0  0  0
   -2.3004   -1.7590   -1.5790 H   0  0  0  0  0  0  0  0  0  0  0  0
   -1.0066   -1.1865   -2.6184 H   0  0  0  0  0  0  0  0  0  0  0  0
   -1.3243    1.1760   -1.5867 H   0  0  0  0  0  0  0  0  0  0  0  0
   -2.5491    0.5697   -2.6871 H   0  0  0  0  0  0  0  0  0  0  0  0
   -6.3416    1.6157   -0.6886 H   0  0  0  0  0  0  0  0  0  0  0  0
   -6.0287    1.3335    1.6129 H   0  0  0  0  0  0  0  0  0  0  0  0
   -1.7704   -0.0798    2.3877 H   0  0  0  0  0  0  0  0  0  0  0  0
   -0.9005    0.8133    1.1605 H   0  0  0  0  0  0  0  0  0  0  0  0
   -0.4273   -1.7360    1.4566 H   0  0  0  0  0  0  0  0  0  0  0  0
   -1.9730   -2.0460    0.7055 H   0  0  0  0  0  0  0  0  0  0  0  0
    3.8213   -0.9142   -1.5403 H   0  0  0  0  0  0  0  0  0  0  0  0
    5.7356    0.6227   -1.7033 H   0  0  0  0  0  0  0  0  0  0  0  0
    5.9941    2.4809   -0.0803 H   0  0  0  0  0  0  0  0  0  0  0  0
    4.3158    2.7933    1.7185 H   0  0  0  0  0  0  0  0  0  0  0  0
    2.3990    1.2634    1.9104 H   0  0  0  0  0  0  0  0  0  0  0  0
  1  2  1  0
  2  3  1  0
  3  4  2  0
  3  5  1  0
  5  6  1  0
  6  7  1  0
  7  8  1  0
  8  9  1  0
  9 10  2  0
 10 11  1  0
 11 12  1  0
 12 13  2  0
 12 14  1  0
 14 15  1  0
 15 16  1  0
  2 17  1  0
 17 18  2  0
 18 19  1  0
 19 20  2  0
 20 21  1  0
 21 22  2  0
 16  5  1  0
 22 17  1  0
 14  8  2  0
  1 23  1  0
  1 24  1  0
  1 25  1  0
  2 26  1  0
  6 27  1  0
  6 28  1  0
  7 29  1  0
  7 30  1  0
 10 31  1  0
 11 32  1  0
 15 33  1  0
 15 34  1  0
 16 35  1  0
 16 36  1  0
 18 37  1  0
 19 38  1  0
 20 39  1  0
 21 40  1  0
 22 41  1  0
M  END
$$$$
