
     RDKit          3D

 47 49  0  0  0  0  0  0  0  0999 V2000
    5.7037    1.6692    0.8204 C   0  0  0  0  0  0  0  0  0  0  0  0
    6.2012    0.5535   -0.0814 C   0  0  0  0  0  0  0  0  0  0  0  0
    5.4482   -0.6441    0.1038 O   0  0  0  0  0  0  0  0  0  0  0  0
    4.2036   -0.6378   -0.5989 C   0  0  0  0  0  0  0  0  0  0  0  0
    3.5302   -1.9865   -0.3702 C   0  0  0  0  0  0  0  0  0  0  0  0
    2.2353   -2.1528   -1.1566 C   0  0  0  0  0  0  0  0  0  0  0  0
    1.1614   -1.3209   -0.6548 N   0  0  0  0  0  0  0  0  0  0  0  0
    0.8658   -0.0889   -1.1910 C   0  0  0  0  0  0  0  0  0  0  0  0
    1.5112    0.4155   -2.1029 O   0  0  0  0  0  0  0  0  0  0  0  0
   -0.2107    0.6283   -0.5356 C   0  0  0  0  0  0  0  0  0  0  0  0
   -0.1418    1.9862   -0.1653 C   0  0  0  0  0  0  0  0  0  0  0  0
   -1.1862    2.3812    0.5573 N   0  0  0  0  0  0  0  0  0  0  0  0
   -2.0629    1.3409    0.4890 N   0  0  0  0  0  0  0  0  0  0  0  0
   -3.4299    1.5954    0.8171 C   0  0  0  0  0  0  0  0  0  0  0  0
   -3.7338    2.6618    1.6794 C   0  0  0  0  0  0  0  0  0  0  0  0
   -5.0600    2.9497    2.0088 C   0  0  0  0  0  0  0  0  0  0  0  0
   -6.0937    2.1903    1.4665 C   0  0  0  0  0  0  0  0  0  0  0  0
   -5.8038    1.1511    0.5846 C   0  0  0  0  0  0  0  0  0  0  0  0
   -4.4779    0.8575    0.2514 C   0  0  0  0  0  0  0  0  0  0  0  0
   -1.4400    0.2126   -0.0379 C   0  0  0  0  0  0  0  0  0  0  0  0
   -1.9728   -1.0750   -0.0265 N   0  0  0  0  0  0  0  0  0  0  0  0
   -2.7211   -1.6472    0.9861 C   0  0  0  0  0  0  0  0  0  0  0  0
   -3.0233   -2.9493    0.6545 C   0  0  0  0  0  0  0  0  0  0  0  0
   -2.4391   -3.2035   -0.6017 C   0  0  0  0  0  0  0  0  0  0  0  0
   -1.7982   -2.0486   -0.9916 C   0  0  0  0  0  0  0  0  0  0  0  0
    6.3549    2.5446    0.7439 H   0  0  0  0  0  0  0  0  0  0  0  0
    4.6873    1.9748    0.5549 H   0  0  0  0  0  0  0  0  0  0  0  0
    5.6770    1.3379    1.8636 H   0  0  0  0  0  0  0  0  0  0  0  0
    7.2376    0.3205    0.1845 H   0  0  0  0  0  0  0  0  0  0  0  0
    6.1943    0.8581   -1.1340 H   0  0  0  0  0  0  0  0  0  0  0  0
    3.5734    0.1709   -0.2183 H   0  0  0  0  0  0  0  0  0  0  0  0
    4.3884   -0.4826   -1.6677 H   0  0  0  0  0  0  0  0  0  0  0  0
    4.2285   -2.7813   -0.6611 H   0  0  0  0  0  0  0  0  0  0  0  0
    3.3481   -2.1256    0.7031 H   0  0  0  0  0  0  0  0  0  0  0  0
    2.3983   -1.9481   -2.2204 H   0  0  0  0  0  0  0  0  0  0  0  0
    1.8881   -3.1877   -1.0670 H   0  0  0  0  0  0  0  0  0  0  0  0
    0.6634   -1.6329    0.1696 H   0  0  0  0  0  0  0  0  0  0  0  0
    0.6676    2.6842   -0.3455 H   0  0  0  0  0  0  0  0  0  0  0  0
   -2.9430    3.2728    2.1125 H   0  0  0  0  0  0  0  0  0  0  0  0
   -5.2838    3.7712    2.6848 H   0  0  0  0  0  0  0  0  0  0  0  0
   -7.1261    2.4182    1.7192 H   0  0  0  0  0  0  0  0  0  0  0  0
   -6.6133    0.5755    0.1421 H   0  0  0  0  0  0  0  0  0  0  0  0
   -4.3056    0.0771   -0.4839 H   0  0  0  0  0  0  0  0  0  0  0  0
   -2.9619   -1.0891    1.8819 H   0  0  0  0  0  0  0  0  0  0  0  0
   -3.5980   -3.6388    1.2604 H   0  0  0  0  0  0  0  0  0  0  0  0
   -2.4815   -4.1256   -1.1679 H   0  0  0  0  0  0  0  0  0  0  0  0
   -1.2593   -1.8331   -1.9051 H   0  0  0  0  0  0  0  0  0  0  0  0
  1  2  1  0
  2  3  1  0
  3  4  1  0
  4  5  1  0
  5  6  1  0
  6  7  1  0
  7  8  1  0
  8  9  2  0
  8 10  1  0
 10 11  1  0
 11 12  2  0
 12 13  1  0
 13 14  1  0
 14 15  2  0
 15 16  1  0
 16 17  2  0
 17 18  1  0
 18 19  2  0
 13 20  1  0
 20 21  1  0
 21 22  1  0
 22 23  2  0
 23 24  1  0
 24 25  2  0
 20 10  2  0
 25 21  1  0
 19 14  1  0
  1 26  1  0
  1 27  1  0
  1 28  1  0
  2 29  1  0
  2 30  1  0
  4 31  1  0
  4 32  1  0
  5 33  1  0
  5 34  1  0
  6 35  1  0
  6 36  1  0
  7 37  1  0
 11 38  1  0
 15 39  1  0
 16 40  1  0
 17 41  1  0
 18 42  1  0
 19 43  1  0
 22 44  1  0
 23 45  1  0
 24 46  1  0
 25 47  1  0
M  END
$$$$
