
     RDKit          3D

 44 47  0  0  0  0  0  0  0  0999 V2000
   -6.2854   -0.7581    0.4271 C   0  0  0  0  0  0  0  0  0  0  0  0
   -5.8632    0.8231    1.1366 S   0  0  0  0  0  6  0  0  0  0  0  0
   -6.9482    1.7349    0.8327 O   0  0  0  0  0  0  0  0  0  0  0  0
   -5.4551    0.5955    2.5066 O   0  0  0  0  0  0  0  0  0  0  0  0
   -4.5357    1.2983    0.2220 N   0  0  0  0  0  0  0  0  0  0  0  0
   -4.7708    1.7942   -1.1629 C   0  0  0  0  0  0  0  0  0  0  0  0
   -3.4181    1.6696   -1.8864 C   0  0  0  0  0  0  0  0  0  0  0  0
   -2.6387    0.7714   -0.9759 C   0  0  0  0  0  0  0  0  0  0  0  0
   -1.3855    0.2172   -1.2115 C   0  0  0  0  0  0  0  0  0  0  0  0
   -0.7865   -0.5293   -0.1888 C   0  0  0  0  0  0  0  0  0  0  0  0
    0.5489   -1.1735   -0.3511 C   0  0  0  0  0  0  0  0  0  0  0  0
    0.8330   -2.1388    0.3583 O   0  0  0  0  0  0  0  0  0  0  0  0
    1.4982   -0.6490   -1.4218 C   0  0  0  0  0  0  0  0  0  0  0  0
    2.8712   -0.7782   -0.9557 N   0  0  0  0  0  0  0  0  0  0  0  0
    3.5781   -1.9312   -1.1974 C   0  0  0  0  0  0  0  0  0  0  0  0
    4.7952   -2.1433   -0.8247 N   0  0  0  0  0  0  0  0  0  0  0  0
    5.4371   -1.1357   -0.0904 C   0  0  0  0  0  0  0  0  0  0  0  0
    6.7527   -1.3406    0.3264 C   0  0  0  0  0  0  0  0  0  0  0  0
    7.4085   -0.3586    1.0632 C   0  0  0  0  0  0  0  0  0  0  0  0
    8.6717   -0.5647    1.4576 F   0  0  0  0  0  0  0  0  0  0  0  0
    6.7761    0.8349    1.3985 C   0  0  0  0  0  0  0  0  0  0  0  0
    5.4618    1.0523    0.9885 C   0  0  0  0  0  0  0  0  0  0  0  0
    4.8026    0.0643    0.2459 C   0  0  0  0  0  0  0  0  0  0  0  0
    3.4139    0.2580   -0.2125 C   0  0  0  0  0  0  0  0  0  0  0  0
    2.8064    1.2897    0.0614 O   0  0  0  0  0  0  0  0  0  0  0  0
   -1.4537   -0.6941    1.0424 C   0  0  0  0  0  0  0  0  0  0  0  0
   -2.7105   -0.1193    1.2664 C   0  0  0  0  0  0  0  0  0  0  0  0
   -3.3049    0.5827    0.2355 C   0  0  0  0  0  0  0  0  0  0  0  0
   -6.5291   -0.6321   -0.6283 H   0  0  0  0  0  0  0  0  0  0  0  0
   -7.1612   -1.1360    0.9601 H   0  0  0  0  0  0  0  0  0  0  0  0
   -5.4527   -1.4502    0.5602 H   0  0  0  0  0  0  0  0  0  0  0  0
   -5.1168    2.8323   -1.1525 H   0  0  0  0  0  0  0  0  0  0  0  0
   -5.5177    1.1780   -1.6749 H   0  0  0  0  0  0  0  0  0  0  0  0
   -3.5394    1.2430   -2.8864 H   0  0  0  0  0  0  0  0  0  0  0  0
   -2.9268    2.6455   -1.9601 H   0  0  0  0  0  0  0  0  0  0  0  0
   -0.9070    0.3779   -2.1714 H   0  0  0  0  0  0  0  0  0  0  0  0
    1.2986    0.4031   -1.6426 H   0  0  0  0  0  0  0  0  0  0  0  0
    1.3534   -1.2444   -2.3294 H   0  0  0  0  0  0  0  0  0  0  0  0
    3.0290   -2.7018   -1.7621 H   0  0  0  0  0  0  0  0  0  0  0  0
    7.2673   -2.2642    0.0815 H   0  0  0  0  0  0  0  0  0  0  0  0
    7.3101    1.5834    1.9760 H   0  0  0  0  0  0  0  0  0  0  0  0
    4.9555    1.9800    1.2452 H   0  0  0  0  0  0  0  0  0  0  0  0
   -0.9824   -1.2598    1.8462 H   0  0  0  0  0  0  0  0  0  0  0  0
   -3.1798   -0.2266    2.2387 H   0  0  0  0  0  0  0  0  0  0  0  0
  1  2  1  0
  2  3  2  0
  2  4  2  0
  2  5  1  0
  5  6  1  0
  6  7  1  0
  7  8  1  0
  8  9  2  0
  9 10  1  0
 10 11  1  0
 11 12  2  0
 11 13  1  0
 13 14  1  0
 14 15  1  0
 15 16  2  0
 16 17  1  0
 17 18  2  0
 18 19  1  0
 19 20  1  0
 19 21  2  0
 21 22  1  0
 22 23  2  0
 23 24  1  0
 24 25  2  0
 10 26  2  0
 26 27  1  0
 27 28  2  0
 28  5  1  0
 28  8  1  0
 24 14  1  0
 23 17  1  0
  1 29  1  0
  1 30  1  0
  1 31  1  0
  6 32  1  0
  6 33  1  0
  7 34  1  0
  7 35  1  0
  9 36  1  0
 13 37  1  0
 13 38  1  0
 15 39  1  0
 18 40  1  0
 21 41  1  0
 22 42  1  0
 26 43  1  0
 27 44  1  0
M  END
$$$$
