
     RDKit          3D

 51 54  0  0  0  0  0  0  0  0999 V2000
    9.0655    1.1666   -1.8298 C   0  0  0  0  0  0  0  0  0  0  0  0
    7.6815    0.5889   -1.5772 C   0  0  0  0  0  0  0  0  0  0  0  0
    7.4047    0.4371   -0.0794 C   0  0  0  0  0  0  0  0  0  0  0  0
    6.0344   -0.1457    0.1862 C   0  0  0  0  0  0  0  0  0  0  0  0
    5.8971   -1.3966    0.6564 C   0  0  0  0  0  0  0  0  0  0  0  0
    4.5432   -1.9364    0.9196 C   0  0  0  0  0  0  0  0  0  0  0  0
    4.4230   -3.0777    1.3548 O   0  0  0  0  0  0  0  0  0  0  0  0
    3.5324   -1.0462    0.6358 N   0  0  0  0  0  0  0  0  0  0  0  0
    2.2110   -1.3660    0.8138 N   0  0  0  0  0  0  0  0  0  0  0  0
    1.4530   -0.3602    0.4871 C   0  0  0  0  0  0  0  0  0  0  0  0
    0.0648   -0.3655    0.5383 N   0  0  0  0  0  0  0  0  0  0  0  0
   -0.5861   -1.5656    1.0932 C   0  0  0  0  0  0  0  0  0  0  0  0
   -1.9773   -1.7520    0.5020 C   0  0  0  0  0  0  0  0  0  0  0  0
   -2.8400   -0.5046    0.7070 C   0  0  0  0  0  0  0  0  0  0  0  0
   -4.2238   -0.6794    0.0777 C   0  0  0  0  0  0  0  0  0  0  0  0
   -4.4863   -1.6335   -0.6454 O   0  0  0  0  0  0  0  0  0  0  0  0
   -5.0958    0.3396    0.4287 N   0  0  0  0  0  0  0  0  0  0  0  0
   -6.4337    0.5068    0.0102 C   0  0  0  0  0  0  0  0  0  0  0  0
   -7.1292    1.6115    0.5274 C   0  0  0  0  0  0  0  0  0  0  0  0
   -8.4578    1.8574    0.1663 C   0  0  0  0  0  0  0  0  0  0  0  0
   -9.1029    0.9989   -0.7179 C   0  0  0  0  0  0  0  0  0  0  0  0
   -8.4134   -0.0932   -1.2304 C   0  0  0  0  0  0  0  0  0  0  0  0
   -9.0367   -0.9174   -2.0835 F   0  0  0  0  0  0  0  0  0  0  0  0
   -7.0899   -0.3466   -0.8765 C   0  0  0  0  0  0  0  0  0  0  0  0
   -2.1198    0.7057    0.1080 C   0  0  0  0  0  0  0  0  0  0  0  0
   -0.7163    0.8671    0.6867 C   0  0  0  0  0  0  0  0  0  0  0  0
    2.3246    1.0693   -0.0717 S   0  0  0  0  0  0  0  0  0  0  0  0
    3.8020    0.2068    0.1681 C   0  0  0  0  0  0  0  0  0  0  0  0
    4.9731    0.6980   -0.0629 N   0  0  0  0  0  0  0  0  0  0  0  0
    9.8433    0.5161   -1.4172 H   0  0  0  0  0  0  0  0  0  0  0  0
    9.1666    2.1564   -1.3737 H   0  0  0  0  0  0  0  0  0  0  0  0
    9.2437    1.2672   -2.9051 H   0  0  0  0  0  0  0  0  0  0  0  0
    6.9328    1.2445   -2.0381 H   0  0  0  0  0  0  0  0  0  0  0  0
    7.6044   -0.3864   -2.0729 H   0  0  0  0  0  0  0  0  0  0  0  0
    8.1821   -0.1934    0.3715 H   0  0  0  0  0  0  0  0  0  0  0  0
    7.4788    1.4132    0.4166 H   0  0  0  0  0  0  0  0  0  0  0  0
    6.7305   -2.0560    0.8595 H   0  0  0  0  0  0  0  0  0  0  0  0
   -0.6415   -1.4772    2.1851 H   0  0  0  0  0  0  0  0  0  0  0  0
   -0.0087   -2.4696    0.8670 H   0  0  0  0  0  0  0  0  0  0  0  0
   -1.8865   -1.9750   -0.5695 H   0  0  0  0  0  0  0  0  0  0  0  0
   -2.4581   -2.6232    0.9636 H   0  0  0  0  0  0  0  0  0  0  0  0
   -2.9837   -0.3524    1.7855 H   0  0  0  0  0  0  0  0  0  0  0  0
   -4.7508    1.0346    1.0778 H   0  0  0  0  0  0  0  0  0  0  0  0
   -6.6485    2.2983    1.2198 H   0  0  0  0  0  0  0  0  0  0  0  0
   -8.9853    2.7160    0.5740 H   0  0  0  0  0  0  0  0  0  0  0  0
  -10.1332    1.1704   -1.0127 H   0  0  0  0  0  0  0  0  0  0  0  0
   -6.6123   -1.2151   -1.3147 H   0  0  0  0  0  0  0  0  0  0  0  0
   -2.6875    1.6258    0.2896 H   0  0  0  0  0  0  0  0  0  0  0  0
   -2.0554    0.5924   -0.9825 H   0  0  0  0  0  0  0  0  0  0  0  0
   -0.2575    1.7150    0.1702 H   0  0  0  0  0  0  0  0  0  0  0  0
   -0.7745    1.1311    1.7498 H   0  0  0  0  0  0  0  0  0  0  0  0
  1  2  1  0
  2  3  1  0
  3  4  1  0
  4  5  2  0
  5  6  1  0
  6  7  2  0
  6  8  1  0
  8  9  1  0
  9 10  2  0
 10 11  1  0
 11 12  1  0
 12 13  1  0
 13 14  1  0
 14 15  1  0
 15 16  2  0
 15 17  1  0
 17 18  1  0
 18 19  2  0
 19 20  1  0
 20 21  2  0
 21 22  1  0
 22 23  1  0
 22 24  2  0
 14 25  1  0
 25 26  1  0
 10 27  1  0
 27 28  1  0
 28 29  2  0
 29  4  1  0
 28  8  1  0
 26 11  1  0
 24 18  1  0
  1 30  1  0
  1 31  1  0
  1 32  1  0
  2 33  1  0
  2 34  1  0
  3 35  1  0
  3 36  1  0
  5 37  1  0
 12 38  1  0
 12 39  1  0
 13 40  1  0
 13 41  1  0
 14 42  1  0
 17 43  1  0
 19 44  1  0
 20 45  1  0
 21 46  1  0
 24 47  1  0
 25 48  1  0
 25 49  1  0
 26 50  1  0
 26 51  1  0
M  END
$$$$
