
     RDKit          3D

 40 42  0  0  0  0  0  0  0  0999 V2000
    3.8595   -2.6160   -0.0697 C   0  0  0  0  0  0  0  0  0  0  0  0
    3.7399   -1.1215    0.0007 C   0  0  0  0  0  0  0  0  0  0  0  0
    4.8790   -0.3263    0.1135 C   0  0  0  0  0  0  0  0  0  0  0  0
    4.7534    1.0568    0.1406 C   0  0  0  0  0  0  0  0  0  0  0  0
    3.4901    1.6526    0.0471 C   0  0  0  0  0  0  0  0  0  0  0  0
    2.3179    0.8889   -0.0773 C   0  0  0  0  0  0  0  0  0  0  0  0
    1.0501    1.5270   -0.1779 N   0  0  0  0  0  0  0  0  0  0  0  0
    0.8028    2.9238   -0.3168 C   0  0  0  0  0  0  0  0  0  0  0  0
    1.5716    3.8678   -0.3951 O   0  0  0  0  0  0  0  0  0  0  0  0
   -0.5890    3.0842   -0.3707 N   0  0  0  0  0  0  0  0  0  0  0  0
   -1.1823    1.8360   -0.2543 C   0  0  0  0  0  0  0  0  0  0  0  0
   -2.4833    1.4267   -0.2186 C   0  0  0  0  0  0  0  0  0  0  0  0
   -3.6172    2.3806   -0.3663 C   0  0  0  0  0  0  0  0  0  0  0  0
   -3.4560    3.4205   -1.2526 N   0  0  0  0  0  0  0  0  0  0  0  0
   -4.6701    2.2491    0.2446 O   0  0  0  0  0  0  0  0  0  0  0  0
   -2.8089    0.1256   -0.0471 N   0  0  0  0  0  0  0  0  0  0  0  0
   -1.7915   -0.7529    0.0844 C   0  0  0  0  0  0  0  0  0  0  0  0
   -2.1321   -2.2131    0.2893 C   0  0  0  0  0  0  0  0  0  0  0  0
   -2.8907   -2.7690   -0.9149 C   0  0  0  0  0  0  0  0  0  0  0  0
   -2.9242   -2.4120    1.5807 C   0  0  0  0  0  0  0  0  0  0  0  0
   -0.4828   -0.4257    0.0416 N   0  0  0  0  0  0  0  0  0  0  0  0
   -0.2080    0.8715   -0.1278 C   0  0  0  0  0  0  0  0  0  0  0  0
    2.4772   -0.5072   -0.1074 C   0  0  0  0  0  0  0  0  0  0  0  0
    4.7574   -2.9631    0.4522 H   0  0  0  0  0  0  0  0  0  0  0  0
    3.0002   -3.0978    0.4086 H   0  0  0  0  0  0  0  0  0  0  0  0
    3.9122   -2.9380   -1.1142 H   0  0  0  0  0  0  0  0  0  0  0  0
    5.8664   -0.7767    0.1802 H   0  0  0  0  0  0  0  0  0  0  0  0
    5.6379    1.6822    0.2343 H   0  0  0  0  0  0  0  0  0  0  0  0
    3.4636    2.7375    0.0862 H   0  0  0  0  0  0  0  0  0  0  0  0
   -1.0478    3.9828   -0.4196 H   0  0  0  0  0  0  0  0  0  0  0  0
   -4.3067    3.9387   -1.4456 H   0  0  0  0  0  0  0  0  0  0  0  0
   -2.7926    3.3520   -2.0140 H   0  0  0  0  0  0  0  0  0  0  0  0
   -1.1931   -2.7742    0.3823 H   0  0  0  0  0  0  0  0  0  0  0  0
   -2.3134   -2.6357   -1.8367 H   0  0  0  0  0  0  0  0  0  0  0  0
   -3.0823   -3.8402   -0.7904 H   0  0  0  0  0  0  0  0  0  0  0  0
   -3.8562   -2.2693   -1.0523 H   0  0  0  0  0  0  0  0  0  0  0  0
   -3.8917   -1.8986    1.5467 H   0  0  0  0  0  0  0  0  0  0  0  0
   -2.3714   -2.0225    2.4428 H   0  0  0  0  0  0  0  0  0  0  0  0
   -3.1154   -3.4760    1.7569 H   0  0  0  0  0  0  0  0  0  0  0  0
    1.6277   -1.1686   -0.2346 H   0  0  0  0  0  0  0  0  0  0  0  0
  1  2  1  0
  2  3  2  0
  3  4  1  0
  4  5  2  0
  5  6  1  0
  6  7  1  0
  7  8  1  0
  8  9  2  0
  8 10  1  0
 10 11  1  0
 11 12  2  0
 12 13  1  0
 13 14  1  0
 13 15  2  0
 12 16  1  0
 16 17  2  0
 17 18  1  0
 18 19  1  0
 18 20  1  0
 17 21  1  0
 21 22  2  0
  6 23  2  0
 23  2  1  0
 22  7  1  0
 22 11  1  0
  1 24  1  0
  1 25  1  0
  1 26  1  0
  3 27  1  0
  4 28  1  0
  5 29  1  0
 10 30  1  0
 14 31  1  0
 14 32  1  0
 18 33  1  0
 19 34  1  0
 19 35  1  0
 19 36  1  0
 20 37  1  0
 20 38  1  0
 20 39  1  0
 23 40  1  0
M  END
$$$$
