
     RDKit          3D

 52 53  0  0  0  0  0  0  0  0999 V2000
   -6.3835   -3.5385    0.3329 C   0  0  0  0  0  0  0  0  0  0  0  0
   -5.6282   -2.7328   -0.7122 C   0  0  0  0  0  0  0  0  0  0  0  0
   -4.4575   -1.9368   -0.1436 C   0  0  0  0  0  0  0  0  0  0  0  0
   -3.0916   -2.9638    0.3651 S   0  0  0  0  0  6  0  0  0  0  0  0
   -3.4298   -3.6398    1.6030 O   0  0  0  0  0  0  0  0  0  0  0  0
   -2.5796   -3.6755   -0.7916 O   0  0  0  0  0  0  0  0  0  0  0  0
   -1.8425   -1.7818    0.7929 C   0  0  0  0  0  0  0  0  0  0  0  0
   -1.9675   -0.4745    0.7247 N   0  0  0  0  0  0  0  0  0  0  0  0
   -0.7760    0.1140    1.1695 C   0  0  0  0  0  0  0  0  0  0  0  0
   -0.6150    1.8577    1.1508 S   0  0  0  0  0  6  0  0  0  0  0  0
    0.5271    2.1853    1.9842 O   0  0  0  0  0  0  0  0  0  0  0  0
   -1.9441    2.3671    1.4356 O   0  0  0  0  0  0  0  0  0  0  0  0
   -0.2078    2.2209   -0.5348 C   0  0  0  0  0  0  0  0  0  0  0  0
    1.1236    2.1427   -0.9526 C   0  0  0  0  0  0  0  0  0  0  0  0
    1.4433    2.4304   -2.2799 C   0  0  0  0  0  0  0  0  0  0  0  0
    0.4431    2.8143   -3.1847 C   0  0  0  0  0  0  0  0  0  0  0  0
    0.7861    3.0863   -4.6214 C   0  0  0  0  0  0  0  0  0  0  0  0
   -0.8877    2.8904   -2.7491 C   0  0  0  0  0  0  0  0  0  0  0  0
   -1.2149    2.6052   -1.4237 C   0  0  0  0  0  0  0  0  0  0  0  0
    0.2449   -0.7679    1.5223 C   0  0  0  0  0  0  0  0  0  0  0  0
    1.4984   -0.4824    1.9656 N   0  0  0  0  0  0  0  0  0  0  0  0
    2.6020   -1.4360    1.9615 C   0  0  0  0  0  0  0  0  0  0  0  0
    3.9134   -0.7201    2.3661 C   0  0  0  0  0  0  0  0  0  0  0  0
    4.1734    0.5151    1.5896 N   0  0  0  0  0  0  0  0  0  0  0  0
    5.2209    1.3062    2.2388 C   0  0  0  0  0  0  0  0  0  0  0  0
    4.5620    0.2097    0.2113 C   0  0  0  0  0  0  0  0  0  0  0  0
   -0.3435   -2.3830    1.3223 S   0  0  0  0  0  0  0  0  0  0  0  0
   -6.6913   -2.9060    1.1716 H   0  0  0  0  0  0  0  0  0  0  0  0
   -5.7789   -4.3627    0.7209 H   0  0  0  0  0  0  0  0  0  0  0  0
   -7.2842   -3.9755   -0.1109 H   0  0  0  0  0  0  0  0  0  0  0  0
   -6.3311   -2.0278   -1.1737 H   0  0  0  0  0  0  0  0  0  0  0  0
   -5.2845   -3.4037   -1.5078 H   0  0  0  0  0  0  0  0  0  0  0  0
   -4.7693   -1.3302    0.7144 H   0  0  0  0  0  0  0  0  0  0  0  0
   -4.0746   -1.2707   -0.9244 H   0  0  0  0  0  0  0  0  0  0  0  0
    1.9137    1.8618   -0.2586 H   0  0  0  0  0  0  0  0  0  0  0  0
    2.4791    2.3565   -2.6050 H   0  0  0  0  0  0  0  0  0  0  0  0
    0.7493    2.1539   -5.1949 H   0  0  0  0  0  0  0  0  0  0  0  0
    0.0843    3.8038   -5.0625 H   0  0  0  0  0  0  0  0  0  0  0  0
    1.7890    3.5194   -4.7086 H   0  0  0  0  0  0  0  0  0  0  0  0
   -1.6766    3.1781   -3.4418 H   0  0  0  0  0  0  0  0  0  0  0  0
   -2.2501    2.6815   -1.0980 H   0  0  0  0  0  0  0  0  0  0  0  0
    1.8169    0.4950    2.0273 H   0  0  0  0  0  0  0  0  0  0  0  0
    2.7160   -1.8845    0.9679 H   0  0  0  0  0  0  0  0  0  0  0  0
    2.4089   -2.2422    2.6788 H   0  0  0  0  0  0  0  0  0  0  0  0
    3.8129   -0.4534    3.4276 H   0  0  0  0  0  0  0  0  0  0  0  0
    4.7565   -1.4200    2.2927 H   0  0  0  0  0  0  0  0  0  0  0  0
    4.9177    1.5863    3.2541 H   0  0  0  0  0  0  0  0  0  0  0  0
    5.3878    2.2439    1.6957 H   0  0  0  0  0  0  0  0  0  0  0  0
    6.1718    0.7649    2.2985 H   0  0  0  0  0  0  0  0  0  0  0  0
    5.4532   -0.4268    0.1600 H   0  0  0  0  0  0  0  0  0  0  0  0
    3.7463   -0.2883   -0.3244 H   0  0  0  0  0  0  0  0  0  0  0  0
    4.7683    1.1338   -0.3416 H   0  0  0  0  0  0  0  0  0  0  0  0
  1  2  1  0
  2  3  1  0
  3  4  1  0
  4  5  2  0
  4  6  2  0
  4  7  1  0
  7  8  2  0
  8  9  1  0
  9 10  1  0
 10 11  2  0
 10 12  2  0
 10 13  1  0
 13 14  2  0
 14 15  1  0
 15 16  2  0
 16 17  1  0
 16 18  1  0
 18 19  2  0
  9 20  2  0
 20 21  1  0
 21 22  1  0
 22 23  1  0
 23 24  1  0
 24 25  1  0
 24 26  1  0
 20 27  1  0
 27  7  1  0
 19 13  1  0
  1 28  1  0
  1 29  1  0
  1 30  1  0
  2 31  1  0
  2 32  1  0
  3 33  1  0
  3 34  1  0
 14 35  1  0
 15 36  1  0
 17 37  1  0
 17 38  1  0
 17 39  1  0
 18 40  1  0
 19 41  1  0
 21 42  1  0
 22 43  1  0
 22 44  1  0
 23 45  1  0
 23 46  1  0
 25 47  1  0
 25 48  1  0
 25 49  1  0
 26 50  1  0
 26 51  1  0
 26 52  1  0
M  END
$$$$
