
     RDKit          3D

 48 51  0  0  0  0  0  0  0  0999 V2000
   -1.1345    5.3343   -0.5205 C   0  0  0  0  0  0  0  0  0  0  0  0
   -1.0974    3.8264   -0.7067 C   0  0  0  0  0  0  0  0  0  0  0  0
   -1.0922    3.0968    0.6380 C   0  0  0  0  0  0  0  0  0  0  0  0
   -1.0545    1.6376    0.4645 N   0  0  0  0  0  0  0  0  0  0  0  0
   -2.2861    0.9710    0.3250 C   0  0  0  0  0  0  0  0  0  0  0  0
   -3.3315    1.6262    0.4138 O   0  0  0  0  0  0  0  0  0  0  0  0
   -2.2657   -0.4325    0.1271 N   0  0  0  0  0  0  0  0  0  0  0  0
   -3.5344   -1.1215   -0.0306 C   0  0  0  0  0  0  0  0  0  0  0  0
   -3.7432   -2.3992    0.5179 C   0  0  0  0  0  0  0  0  0  0  0  0
   -4.9634   -3.0674    0.3653 C   0  0  0  0  0  0  0  0  0  0  0  0
   -6.0025   -2.4718   -0.3408 C   0  0  0  0  0  0  0  0  0  0  0  0
   -5.8212   -1.2092   -0.8941 C   0  0  0  0  0  0  0  0  0  0  0  0
   -4.6003   -0.5426   -0.7406 C   0  0  0  0  0  0  0  0  0  0  0  0
   -1.0900   -1.2080    0.0571 C   0  0  0  0  0  0  0  0  0  0  0  0
   -1.0410   -2.4144   -0.1729 O   0  0  0  0  0  0  0  0  0  0  0  0
    0.1441   -0.4692    0.2210 C   0  0  0  0  0  0  0  0  0  0  0  0
    1.4974   -0.9506    0.2095 C   0  0  0  0  0  0  0  0  0  0  0  0
    2.4066    0.0816    0.3516 C   0  0  0  0  0  0  0  0  0  0  0  0
    1.6384    1.5902    0.5249 S   0  0  0  0  0  0  0  0  0  0  0  0
    0.1017    0.8844    0.3963 C   0  0  0  0  0  0  0  0  0  0  0  0
    3.8978   -0.0499    0.3708 C   0  0  0  0  0  0  0  0  0  0  0  0
    4.3004   -1.4297    0.0579 N   0  0  0  0  0  0  0  0  0  0  0  0
    5.6112   -1.7599   -0.2685 C   0  0  0  0  0  0  0  0  0  0  0  0
    6.5403   -0.6243   -0.6200 C   0  0  0  0  0  0  0  0  0  0  0  0
    6.0224   -2.9199   -0.2917 O   0  0  0  0  0  0  0  0  0  0  0  0
    3.4205   -2.5105    0.5352 C   0  0  0  0  0  0  0  0  0  0  0  0
    1.9751   -2.3606    0.0348 C   0  0  0  0  0  0  0  0  0  0  0  0
   -1.1389    5.8364   -1.4930 H   0  0  0  0  0  0  0  0  0  0  0  0
   -2.0335    5.6404    0.0239 H   0  0  0  0  0  0  0  0  0  0  0  0
   -0.2591    5.6819    0.0374 H   0  0  0  0  0  0  0  0  0  0  0  0
   -1.9652    3.5141   -1.2995 H   0  0  0  0  0  0  0  0  0  0  0  0
   -0.2078    3.5569   -1.2874 H   0  0  0  0  0  0  0  0  0  0  0  0
   -0.2534    3.4245    1.2614 H   0  0  0  0  0  0  0  0  0  0  0  0
   -1.9928    3.3692    1.2021 H   0  0  0  0  0  0  0  0  0  0  0  0
   -2.9710   -2.8957    1.1008 H   0  0  0  0  0  0  0  0  0  0  0  0
   -5.0978   -4.0533    0.8033 H   0  0  0  0  0  0  0  0  0  0  0  0
   -6.9503   -2.9899   -0.4599 H   0  0  0  0  0  0  0  0  0  0  0  0
   -6.6272   -0.7380   -1.4511 H   0  0  0  0  0  0  0  0  0  0  0  0
   -4.4984    0.4301   -1.2163 H   0  0  0  0  0  0  0  0  0  0  0  0
    4.2888    0.1871    1.3671 H   0  0  0  0  0  0  0  0  0  0  0  0
    4.3448    0.6388   -0.3522 H   0  0  0  0  0  0  0  0  0  0  0  0
    6.1732   -0.0975   -1.5045 H   0  0  0  0  0  0  0  0  0  0  0  0
    6.6420    0.0620    0.2245 H   0  0  0  0  0  0  0  0  0  0  0  0
    7.5316   -1.0269   -0.8507 H   0  0  0  0  0  0  0  0  0  0  0  0
    3.4505   -2.4794    1.6320 H   0  0  0  0  0  0  0  0  0  0  0  0
    3.8020   -3.4909    0.2308 H   0  0  0  0  0  0  0  0  0  0  0  0
    1.3360   -3.0642    0.5779 H   0  0  0  0  0  0  0  0  0  0  0  0
    1.9284   -2.6128   -1.0316 H   0  0  0  0  0  0  0  0  0  0  0  0
  1  2  1  0
  2  3  1  0
  3  4  1  0
  4  5  1  0
  5  6  2  0
  5  7  1  0
  7  8  1  0
  8  9  2  0
  9 10  1  0
 10 11  2  0
 11 12  1  0
 12 13  2  0
  7 14  1  0
 14 15  2  0
 14 16  1  0
 16 17  1  0
 17 18  2  0
 18 19  1  0
 19 20  1  0
 18 21  1  0
 21 22  1  0
 22 23  1  0
 23 24  1  0
 23 25  2  0
 22 26  1  0
 26 27  1  0
 20  4  1  0
 13  8  1  0
 20 16  2  0
 27 17  1  0
  1 28  1  0
  1 29  1  0
  1 30  1  0
  2 31  1  0
  2 32  1  0
  3 33  1  0
  3 34  1  0
  9 35  1  0
 10 36  1  0
 11 37  1  0
 12 38  1  0
 13 39  1  0
 21 40  1  0
 21 41  1  0
 24 42  1  0
 24 43  1  0
 24 44  1  0
 26 45  1  0
 26 46  1  0
 27 47  1  0
 27 48  1  0
M  END
$$$$
