
     RDKit          3D

 47 50  0  0  0  0  0  0  0  0999 V2000
    6.5755    0.1886    0.7385 C   0  0  0  0  0  0  0  0  0  0  0  0
    5.1299   -0.0269    0.3968 C   0  0  0  0  0  0  0  0  0  0  0  0
    4.2624   -0.6245    1.3226 C   0  0  0  0  0  0  0  0  0  0  0  0
    2.9092   -0.7992    1.0194 C   0  0  0  0  0  0  0  0  0  0  0  0
    2.4118   -0.3651   -0.2076 C   0  0  0  0  0  0  0  0  0  0  0  0
    1.0745   -0.5574   -0.4451 O   0  0  0  0  0  0  0  0  0  0  0  0
    0.5582   -0.1132   -1.6508 C   0  0  0  0  0  0  0  0  0  0  0  0
   -0.8884   -0.3620   -1.9347 C   0  0  0  0  0  0  0  0  0  0  0  0
   -1.2080   -0.8190   -3.0319 O   0  0  0  0  0  0  0  0  0  0  0  0
   -1.8163   -0.0698   -0.9344 N   0  0  0  0  0  0  0  0  0  0  0  0
   -3.1794   -0.5701   -1.1552 C   0  0  0  0  0  0  0  0  0  0  0  0
   -3.4392   -1.8146   -0.3709 C   0  0  0  0  0  0  0  0  0  0  0  0
   -4.6058   -2.4808   -0.0478 C   0  0  0  0  0  0  0  0  0  0  0  0
   -4.2256   -3.6163    0.7072 C   0  0  0  0  0  0  0  0  0  0  0  0
   -2.8545   -3.5742    0.7988 C   0  0  0  0  0  0  0  0  0  0  0  0
   -2.3683   -2.4845    0.1541 O   0  0  0  0  0  0  0  0  0  0  0  0
   -1.5730    0.8869    0.1653 C   0  0  0  0  0  0  0  0  0  0  0  0
   -2.2803    0.5773    1.4950 C   0  0  0  0  0  0  0  0  0  0  0  0
   -1.9687    1.7573    2.4069 C   0  0  0  0  0  0  0  0  0  0  0  0
   -2.0111    3.1911    1.3428 S   0  0  0  0  0  6  0  0  0  0  0  0
   -0.7612    3.9064    1.4875 O   0  0  0  0  0  0  0  0  0  0  0  0
   -3.2984    3.8378    1.4848 O   0  0  0  0  0  0  0  0  0  0  0  0
   -1.9875    2.3131   -0.2097 C   0  0  0  0  0  0  0  0  0  0  0  0
    1.2731    0.4655   -2.6250 C   0  0  0  0  0  0  0  0  0  0  0  0
    2.7092    0.6944   -2.4118 C   0  0  0  0  0  0  0  0  0  0  0  0
    3.3936    1.2405   -3.2659 O   0  0  0  0  0  0  0  0  0  0  0  0
    3.2642    0.2407   -1.1268 C   0  0  0  0  0  0  0  0  0  0  0  0
    4.6194    0.4171   -0.8297 C   0  0  0  0  0  0  0  0  0  0  0  0
    7.1974    0.1656   -0.1626 H   0  0  0  0  0  0  0  0  0  0  0  0
    6.7024    1.1572    1.2318 H   0  0  0  0  0  0  0  0  0  0  0  0
    6.9405   -0.5996    1.4053 H   0  0  0  0  0  0  0  0  0  0  0  0
    4.6389   -0.9608    2.2868 H   0  0  0  0  0  0  0  0  0  0  0  0
    2.2493   -1.2722    1.7419 H   0  0  0  0  0  0  0  0  0  0  0  0
   -3.3505   -0.7919   -2.2140 H   0  0  0  0  0  0  0  0  0  0  0  0
   -3.8970    0.2109   -0.8831 H   0  0  0  0  0  0  0  0  0  0  0  0
   -5.6075   -2.1885   -0.3335 H   0  0  0  0  0  0  0  0  0  0  0  0
   -4.8688   -4.3779    1.1251 H   0  0  0  0  0  0  0  0  0  0  0  0
   -2.1138   -4.2129    1.2602 H   0  0  0  0  0  0  0  0  0  0  0  0
   -0.5027    0.9235    0.3809 H   0  0  0  0  0  0  0  0  0  0  0  0
   -3.3658    0.5080    1.3628 H   0  0  0  0  0  0  0  0  0  0  0  0
   -1.9343   -0.3628    1.9357 H   0  0  0  0  0  0  0  0  0  0  0  0
   -2.6979    1.8696    3.2117 H   0  0  0  0  0  0  0  0  0  0  0  0
   -0.9602    1.6772    2.8231 H   0  0  0  0  0  0  0  0  0  0  0  0
   -2.9938    2.3562   -0.6365 H   0  0  0  0  0  0  0  0  0  0  0  0
   -1.2796    2.7893   -0.8929 H   0  0  0  0  0  0  0  0  0  0  0  0
    0.8557    0.7718   -3.5763 H   0  0  0  0  0  0  0  0  0  0  0  0
    5.2724    0.8985   -1.5561 H   0  0  0  0  0  0  0  0  0  0  0  0
  1  2  1  0
  2  3  2  0
  3  4  1  0
  4  5  2  0
  5  6  1  0
  6  7  1  0
  7  8  1  0
  8  9  2  0
  8 10  1  0
 10 11  1  0
 11 12  1  0
 12 13  2  0
 13 14  1  0
 14 15  2  0
 15 16  1  0
 10 17  1  0
 17 18  1  0
 18 19  1  0
 19 20  1  0
 20 21  2  0
 20 22  2  0
 20 23  1  0
  7 24  2  0
 24 25  1  0
 25 26  2  0
 25 27  1  0
 27 28  2  0
 28  2  1  0
 27  5  1  0
 16 12  1  0
 23 17  1  0
  1 29  1  0
  1 30  1  0
  1 31  1  0
  3 32  1  0
  4 33  1  0
 11 34  1  0
 11 35  1  0
 13 36  1  0
 14 37  1  0
 15 38  1  0
 17 39  1  0
 18 40  1  0
 18 41  1  0
 19 42  1  0
 19 43  1  0
 23 44  1  0
 23 45  1  0
 24 46  1  0
 28 47  1  0
M  END
$$$$
