
     RDKit          3D

 55 58  0  0  0  0  0  0  0  0999 V2000
    6.6270   -0.7664   -0.9736 C   0  0  0  0  0  0  0  0  0  0  0  0
    5.6929    0.3414   -0.5123 C   0  0  0  0  0  0  0  0  0  0  0  0
    4.9469    0.0113    0.7843 C   0  0  0  0  0  0  0  0  0  0  0  0
    4.0134   -1.1973    0.6899 C   0  0  0  0  0  0  0  0  0  0  0  0
    3.1076   -1.0831   -0.4063 O   0  0  0  0  0  0  0  0  0  0  0  0
    1.9010   -0.4761   -0.2059 C   0  0  0  0  0  0  0  0  0  0  0  0
    1.0245   -0.5621   -1.2883 C   0  0  0  0  0  0  0  0  0  0  0  0
   -0.2460    0.0166   -1.2297 C   0  0  0  0  0  0  0  0  0  0  0  0
   -0.6721    0.7012   -0.0817 C   0  0  0  0  0  0  0  0  0  0  0  0
   -2.0537    1.3199   -0.0516 C   0  0  0  0  0  0  0  0  0  0  0  0
   -2.8168    0.6134    1.0082 C   0  0  0  0  0  0  0  0  0  0  0  0
   -3.3213   -0.6345    1.4173 C   0  0  0  0  0  0  0  0  0  0  0  0
   -3.2334   -1.9454    0.7664 C   0  0  0  0  0  0  0  0  0  0  0  0
   -3.1167   -2.0458   -0.6278 C   0  0  0  0  0  0  0  0  0  0  0  0
   -3.0040   -3.2941   -1.2498 C   0  0  0  0  0  0  0  0  0  0  0  0
   -3.0157   -4.4604   -0.4875 C   0  0  0  0  0  0  0  0  0  0  0  0
   -3.1548   -4.3827    0.8960 C   0  0  0  0  0  0  0  0  0  0  0  0
   -3.2729   -3.1377    1.5118 C   0  0  0  0  0  0  0  0  0  0  0  0
   -3.4370   -3.1489    2.8738 O   0  0  0  0  0  0  0  0  0  0  0  0
   -3.9418   -0.5017    2.6214 N   0  0  0  0  0  0  0  0  0  0  0  0
   -3.8827    0.8244    2.9082 N   0  0  0  0  0  0  0  0  0  0  0  0
   -3.2070    1.4981    1.9681 C   0  0  0  0  0  0  0  0  0  0  0  0
   -2.8167    2.8257    1.6841 C   0  0  0  0  0  0  0  0  0  0  0  0
   -3.1022    3.8327    2.3068 O   0  0  0  0  0  0  0  0  0  0  0  0
   -2.0741    2.7135    0.4963 N   0  0  0  0  0  0  0  0  0  0  0  0
   -1.8745    3.8843   -0.3477 C   0  0  0  0  0  0  0  0  0  0  0  0
   -0.6782    3.8080   -1.2942 C   0  0  0  0  0  0  0  0  0  0  0  0
   -0.9677    2.9406   -2.3889 O   0  0  0  0  0  0  0  0  0  0  0  0
    0.2245    0.7925    0.9974 C   0  0  0  0  0  0  0  0  0  0  0  0
    1.4964    0.2089    0.9366 C   0  0  0  0  0  0  0  0  0  0  0  0
    7.3329   -1.0400   -0.1832 H   0  0  0  0  0  0  0  0  0  0  0  0
    6.0719   -1.6617   -1.2686 H   0  0  0  0  0  0  0  0  0  0  0  0
    7.2037   -0.4335   -1.8425 H   0  0  0  0  0  0  0  0  0  0  0  0
    6.2847    1.2500   -0.3480 H   0  0  0  0  0  0  0  0  0  0  0  0
    4.9799    0.5736   -1.3116 H   0  0  0  0  0  0  0  0  0  0  0  0
    5.6686   -0.1573    1.5923 H   0  0  0  0  0  0  0  0  0  0  0  0
    4.3653    0.8980    1.0609 H   0  0  0  0  0  0  0  0  0  0  0  0
    4.6086   -2.0993    0.5084 H   0  0  0  0  0  0  0  0  0  0  0  0
    3.4960   -1.3844    1.6381 H   0  0  0  0  0  0  0  0  0  0  0  0
    1.3333   -1.0909   -2.1871 H   0  0  0  0  0  0  0  0  0  0  0  0
   -0.8983   -0.0659   -2.0965 H   0  0  0  0  0  0  0  0  0  0  0  0
   -2.5829    1.2996   -1.0097 H   0  0  0  0  0  0  0  0  0  0  0  0
   -3.1274   -1.1596   -1.2541 H   0  0  0  0  0  0  0  0  0  0  0  0
   -2.9104   -3.3557   -2.3312 H   0  0  0  0  0  0  0  0  0  0  0  0
   -2.9269   -5.4303   -0.9696 H   0  0  0  0  0  0  0  0  0  0  0  0
   -3.1793   -5.2871    1.4973 H   0  0  0  0  0  0  0  0  0  0  0  0
   -3.6746   -2.2267    3.1236 H   0  0  0  0  0  0  0  0  0  0  0  0
   -4.3201    1.1717    3.7569 H   0  0  0  0  0  0  0  0  0  0  0  0
   -2.8010    4.0196   -0.9182 H   0  0  0  0  0  0  0  0  0  0  0  0
   -1.7590    4.7538    0.3090 H   0  0  0  0  0  0  0  0  0  0  0  0
   -0.4740    4.7996   -1.7102 H   0  0  0  0  0  0  0  0  0  0  0  0
    0.2193    3.4529   -0.7785 H   0  0  0  0  0  0  0  0  0  0  0  0
   -0.1362    2.8394   -2.8863 H   0  0  0  0  0  0  0  0  0  0  0  0
   -0.0608    1.3214    1.9050 H   0  0  0  0  0  0  0  0  0  0  0  0
    2.1420    0.3164    1.8011 H   0  0  0  0  0  0  0  0  0  0  0  0
  1  2  1  0
  2  3  1  0
  3  4  1  0
  4  5  1  0
  5  6  1  0
  6  7  2  0
  7  8  1  0
  8  9  2  0
  9 10  1  0
 10 11  1  0
 11 12  1  0
 12 13  1  0
 13 14  2  0
 14 15  1  0
 15 16  2  0
 16 17  1  0
 17 18  2  0
 18 19  1  0
 12 20  2  0
 20 21  1  0
 21 22  1  0
 22 23  1  0
 23 24  2  0
 23 25  1  0
 25 26  1  0
 26 27  1  0
 27 28  1  0
  9 29  1  0
 29 30  2  0
 30  6  1  0
 25 10  1  0
 22 11  2  0
 18 13  1  0
  1 31  1  0
  1 32  1  0
  1 33  1  0
  2 34  1  0
  2 35  1  0
  3 36  1  0
  3 37  1  0
  4 38  1  0
  4 39  1  0
  7 40  1  0
  8 41  1  0
 10 42  1  0
 14 43  1  0
 15 44  1  0
 16 45  1  0
 17 46  1  0
 19 47  1  0
 21 48  1  0
 26 49  1  0
 26 50  1  0
 27 51  1  0
 27 52  1  0
 28 53  1  0
 29 54  1  0
 30 55  1  0
M  END
$$$$
