
     RDKit          3D

 42 45  0  0  0  0  0  0  0  0999 V2000
   -4.7453   -1.0841    1.6565 C   0  0  0  0  0  0  0  0  0  0  0  0
   -4.0419    0.2355    1.3694 C   0  0  0  0  0  0  0  0  0  0  0  0
   -3.7419    0.4184   -0.1024 C   0  0  0  0  0  0  0  0  0  0  0  0
   -4.8106    0.7387   -0.9622 C   0  0  0  0  0  0  0  0  0  0  0  0
   -4.6002    0.9560   -2.3227 C   0  0  0  0  0  0  0  0  0  0  0  0
   -3.3175    0.8599   -2.8467 C   0  0  0  0  0  0  0  0  0  0  0  0
   -2.2479    0.5435   -2.0086 C   0  0  0  0  0  0  0  0  0  0  0  0
   -2.4367    0.3163   -0.6311 C   0  0  0  0  0  0  0  0  0  0  0  0
   -1.3384   -0.0323    0.1895 N   0  0  0  0  0  0  0  0  0  0  0  0
   -1.2320   -1.4784    0.4425 C   0  0  0  0  0  0  0  0  0  0  0  0
    0.2668   -1.6276    0.5777 C   0  0  0  0  0  0  0  0  0  0  0  0
    0.8703   -2.6619    0.8391 O   0  0  0  0  0  0  0  0  0  0  0  0
    0.9301   -0.3280    0.3352 C   0  0  0  0  0  0  0  0  0  0  0  0
    2.3134   -0.0760    0.2971 C   0  0  0  0  0  0  0  0  0  0  0  0
    2.9865    1.0079   -0.0497 N   0  0  0  0  0  0  0  0  0  0  0  0
    4.3149    0.6870    0.0932 C   0  0  0  0  0  0  0  0  0  0  0  0
    5.4567    1.4689   -0.1325 C   0  0  0  0  0  0  0  0  0  0  0  0
    6.7164    0.8962    0.0867 C   0  0  0  0  0  0  0  0  0  0  0  0
    6.8356   -0.4268    0.5205 C   0  0  0  0  0  0  0  0  0  0  0  0
    5.7068   -1.2220    0.7508 C   0  0  0  0  0  0  0  0  0  0  0  0
    4.4652   -0.6247    0.5254 C   0  0  0  0  0  0  0  0  0  0  0  0
    3.1813   -1.0882    0.6441 N   0  0  0  0  0  0  0  0  0  0  0  0
   -0.0680    0.5532    0.1116 C   0  0  0  0  0  0  0  0  0  0  0  0
    0.1172    1.8916   -0.1318 N   0  0  0  0  0  0  0  0  0  0  0  0
   -4.9154   -1.1942    2.7322 H   0  0  0  0  0  0  0  0  0  0  0  0
   -4.1507   -1.9378    1.3163 H   0  0  0  0  0  0  0  0  0  0  0  0
   -5.7183   -1.1359    1.1566 H   0  0  0  0  0  0  0  0  0  0  0  0
   -3.1292    0.3020    1.9710 H   0  0  0  0  0  0  0  0  0  0  0  0
   -4.6732    1.0674    1.7070 H   0  0  0  0  0  0  0  0  0  0  0  0
   -5.8199    0.8311   -0.5653 H   0  0  0  0  0  0  0  0  0  0  0  0
   -5.4371    1.2052   -2.9698 H   0  0  0  0  0  0  0  0  0  0  0  0
   -3.1464    1.0290   -3.9065 H   0  0  0  0  0  0  0  0  0  0  0  0
   -1.2542    0.4612   -2.4433 H   0  0  0  0  0  0  0  0  0  0  0  0
   -1.5801   -2.0915   -0.3955 H   0  0  0  0  0  0  0  0  0  0  0  0
   -1.7149   -1.7539    1.3832 H   0  0  0  0  0  0  0  0  0  0  0  0
    5.3572    2.4946   -0.4688 H   0  0  0  0  0  0  0  0  0  0  0  0
    7.6106    1.4911   -0.0834 H   0  0  0  0  0  0  0  0  0  0  0  0
    7.8259   -0.8478    0.6835 H   0  0  0  0  0  0  0  0  0  0  0  0
    5.7990   -2.2486    1.0881 H   0  0  0  0  0  0  0  0  0  0  0  0
    2.9031   -2.0199    0.9292 H   0  0  0  0  0  0  0  0  0  0  0  0
    1.0726    2.1203   -0.4177 H   0  0  0  0  0  0  0  0  0  0  0  0
   -0.6099    2.3044   -0.7046 H   0  0  0  0  0  0  0  0  0  0  0  0
  1  2  1  0
  2  3  1  0
  3  4  2  0
  4  5  1  0
  5  6  2  0
  6  7  1  0
  7  8  2  0
  8  9  1  0
  9 10  1  0
 10 11  1  0
 11 12  2  0
 11 13  1  0
 13 14  1  0
 14 15  2  0
 15 16  1  0
 16 17  2  0
 17 18  1  0
 18 19  2  0
 19 20  1  0
 20 21  2  0
 21 22  1  0
 13 23  2  0
 23 24  1  0
  8  3  1  0
 23  9  1  0
 22 14  1  0
 21 16  1  0
  1 25  1  0
  1 26  1  0
  1 27  1  0
  2 28  1  0
  2 29  1  0
  4 30  1  0
  5 31  1  0
  6 32  1  0
  7 33  1  0
 10 34  1  0
 10 35  1  0
 17 36  1  0
 18 37  1  0
 19 38  1  0
 20 39  1  0
 22 40  1  0
 24 41  1  0
 24 42  1  0
M  END
$$$$
