
     RDKit          3D

 55 58  0  0  0  0  0  0  0  0999 V2000
   -3.8918   -4.5777    2.9044 C   0  0  0  0  0  0  0  0  0  0  0  0
   -3.4577   -3.1299    2.7639 C   0  0  0  0  0  0  0  0  0  0  0  0
   -2.8329   -2.9786    1.4904 O   0  0  0  0  0  0  0  0  0  0  0  0
   -2.3962   -1.7283    1.1541 C   0  0  0  0  0  0  0  0  0  0  0  0
   -1.8475   -1.6266   -0.1262 C   0  0  0  0  0  0  0  0  0  0  0  0
   -1.3571   -0.4065   -0.5993 C   0  0  0  0  0  0  0  0  0  0  0  0
   -1.4173    0.7331    0.2064 C   0  0  0  0  0  0  0  0  0  0  0  0
   -0.8488    1.9922   -0.1964 N   0  0  0  0  0  0  0  0  0  0  0  0
   -1.3269    2.5572   -1.4084 C   0  0  0  0  0  0  0  0  0  0  0  0
   -1.6508    1.8999   -2.3906 O   0  0  0  0  0  0  0  0  0  0  0  0
   -1.5044    4.0374   -1.4267 C   0  0  0  0  0  0  0  0  0  0  0  0
   -1.6279    4.7908   -0.2568 C   0  0  0  0  0  0  0  0  0  0  0  0
   -1.8056    6.1569   -0.3820 C   0  0  0  0  0  0  0  0  0  0  0  0
   -1.8789    6.7982   -1.5673 N   0  0  0  0  0  0  0  0  0  0  0  0
   -1.7640    6.0472   -2.6824 C   0  0  0  0  0  0  0  0  0  0  0  0
   -1.5808    4.6774   -2.6660 C   0  0  0  0  0  0  0  0  0  0  0  0
    0.7169    2.3262    0.3760 S   0  0  0  0  0  6  0  0  0  0  0  0
    1.2238    3.5141   -0.2797 O   0  0  0  0  0  0  0  0  0  0  0  0
    0.7091    2.2481    1.8236 O   0  0  0  0  0  0  0  0  0  0  0  0
    1.6816    0.9597   -0.2401 C   0  0  0  0  0  0  0  0  0  0  0  0
    2.1695    1.0089   -1.5673 C   0  0  0  0  0  0  0  0  0  0  0  0
    2.9298   -0.0468   -2.0815 C   0  0  0  0  0  0  0  0  0  0  0  0
    3.1785   -1.1125   -1.2409 C   0  0  0  0  0  0  0  0  0  0  0  0
    2.7039   -1.1464    0.0741 C   0  0  0  0  0  0  0  0  0  0  0  0
    1.9597   -0.1190    0.6097 C   0  0  0  0  0  0  0  0  0  0  0  0
    3.1203   -2.3520    0.6504 N   0  0  0  0  0  0  0  0  0  0  0  0
    2.8219   -2.7796    1.9865 C   0  0  0  0  0  0  0  0  0  0  0  0
    3.8626   -3.0871   -0.3002 C   0  0  0  0  0  0  0  0  0  0  0  0
    4.3754   -4.1836   -0.1430 O   0  0  0  0  0  0  0  0  0  0  0  0
    3.8893   -2.2964   -1.4707 N   0  0  0  0  0  0  0  0  0  0  0  0
    4.5365   -2.6518   -2.6999 C   0  0  0  0  0  0  0  0  0  0  0  0
   -1.9549    0.6279    1.4928 C   0  0  0  0  0  0  0  0  0  0  0  0
   -2.4476   -0.5948    1.9637 C   0  0  0  0  0  0  0  0  0  0  0  0
   -3.0296   -5.2481    2.8256 H   0  0  0  0  0  0  0  0  0  0  0  0
   -4.3828   -4.7454    3.8668 H   0  0  0  0  0  0  0  0  0  0  0  0
   -4.5842   -4.8526    2.1018 H   0  0  0  0  0  0  0  0  0  0  0  0
   -2.7495   -2.8895    3.5652 H   0  0  0  0  0  0  0  0  0  0  0  0
   -4.3402   -2.4834    2.8343 H   0  0  0  0  0  0  0  0  0  0  0  0
   -1.7993   -2.5077   -0.7626 H   0  0  0  0  0  0  0  0  0  0  0  0
   -0.9294   -0.3679   -1.5980 H   0  0  0  0  0  0  0  0  0  0  0  0
   -1.5962    4.3455    0.7306 H   0  0  0  0  0  0  0  0  0  0  0  0
   -1.9010    6.7929    0.4943 H   0  0  0  0  0  0  0  0  0  0  0  0
   -1.8273    6.5944   -3.6188 H   0  0  0  0  0  0  0  0  0  0  0  0
   -1.5003    4.1261   -3.5974 H   0  0  0  0  0  0  0  0  0  0  0  0
    1.9562    1.8687   -2.2004 H   0  0  0  0  0  0  0  0  0  0  0  0
    3.3039   -0.0199   -3.0984 H   0  0  0  0  0  0  0  0  0  0  0  0
    1.5961   -0.1520    1.6305 H   0  0  0  0  0  0  0  0  0  0  0  0
    3.2616   -3.7620    2.1799 H   0  0  0  0  0  0  0  0  0  0  0  0
    1.7369   -2.8441    2.1116 H   0  0  0  0  0  0  0  0  0  0  0  0
    3.2342   -2.0580    2.6977 H   0  0  0  0  0  0  0  0  0  0  0  0
    5.0186   -3.6289   -2.6088 H   0  0  0  0  0  0  0  0  0  0  0  0
    5.2952   -1.9013   -2.9393 H   0  0  0  0  0  0  0  0  0  0  0  0
    3.7928   -2.6948   -3.5008 H   0  0  0  0  0  0  0  0  0  0  0  0
   -1.9879    1.4968    2.1468 H   0  0  0  0  0  0  0  0  0  0  0  0
   -2.8557   -0.6262    2.9686 H   0  0  0  0  0  0  0  0  0  0  0  0
  1  2  1  0
  2  3  1  0
  3  4  1  0
  4  5  2  0
  5  6  1  0
  6  7  2  0
  7  8  1  0
  8  9  1  0
  9 10  2  0
  9 11  1  0
 11 12  2  0
 12 13  1  0
 13 14  2  0
 14 15  1  0
 15 16  2  0
  8 17  1  0
 17 18  2  0
 17 19  2  0
 17 20  1  0
 20 21  2  0
 21 22  1  0
 22 23  2  0
 23 24  1  0
 24 25  2  0
 24 26  1  0
 26 27  1  0
 26 28  1  0
 28 29  2  0
 28 30  1  0
 30 31  1  0
  7 32  1  0
 32 33  2  0
 33  4  1  0
 16 11  1  0
 25 20  1  0
 30 23  1  0
  1 34  1  0
  1 35  1  0
  1 36  1  0
  2 37  1  0
  2 38  1  0
  5 39  1  0
  6 40  1  0
 12 41  1  0
 13 42  1  0
 15 43  1  0
 16 44  1  0
 21 45  1  0
 22 46  1  0
 25 47  1  0
 27 48  1  0
 27 49  1  0
 27 50  1  0
 31 51  1  0
 31 52  1  0
 31 53  1  0
 32 54  1  0
 33 55  1  0
M  END
$$$$
