
     RDKit          3D

 63 66  0  0  0  0  0  0  0  0999 V2000
   -8.9441    0.4372    1.1869 C   0  0  0  0  0  0  0  0  0  0  0  0
   -7.4302    0.2633    1.2870 C   0  0  0  0  0  0  0  0  0  0  0  0
   -6.6821    0.2485    0.0157 N   0  0  0  0  0  0  0  0  0  0  0  0
   -7.0956   -0.8234   -0.9050 C   0  0  0  0  0  0  0  0  0  0  0  0
   -6.9285   -2.2263   -0.3280 C   0  0  0  0  0  0  0  0  0  0  0  0
   -6.7375    1.5772   -0.6465 C   0  0  0  0  0  0  0  0  0  0  0  0
   -5.6335    1.7870   -1.6997 C   0  0  0  0  0  0  0  0  0  0  0  0
   -4.3443    1.3454   -1.2050 N   0  0  0  0  0  0  0  0  0  0  0  0
   -3.1627    1.7413   -1.7792 C   0  0  0  0  0  0  0  0  0  0  0  0
   -3.0883    2.5714   -2.6788 O   0  0  0  0  0  0  0  0  0  0  0  0
   -1.9264    1.1183   -1.2367 C   0  0  0  0  0  0  0  0  0  0  0  0
   -0.7455    1.8652   -1.2407 C   0  0  0  0  0  0  0  0  0  0  0  0
    0.4433    1.3083   -0.7519 C   0  0  0  0  0  0  0  0  0  0  0  0
    0.4950   -0.0110   -0.2736 C   0  0  0  0  0  0  0  0  0  0  0  0
    1.6822   -0.5926    0.2081 N   0  0  0  0  0  0  0  0  0  0  0  0
    1.5807   -1.3703    1.4529 C   0  0  0  0  0  0  0  0  0  0  0  0
    3.0355   -1.4701    1.8469 C   0  0  0  0  0  0  0  0  0  0  0  0
    3.4349   -2.0732    2.8323 O   0  0  0  0  0  0  0  0  0  0  0  0
    3.8752   -0.7667    0.8420 C   0  0  0  0  0  0  0  0  0  0  0  0
    5.2819   -0.6915    0.8519 C   0  0  0  0  0  0  0  0  0  0  0  0
    6.1533   -0.8246    1.8363 N   0  0  0  0  0  0  0  0  0  0  0  0
    7.3948   -0.6613    1.2730 C   0  0  0  0  0  0  0  0  0  0  0  0
    8.6612   -0.6932    1.8692 C   0  0  0  0  0  0  0  0  0  0  0  0
    9.7878   -0.4845    1.0595 C   0  0  0  0  0  0  0  0  0  0  0  0
    9.6649   -0.2596   -0.3221 C   0  0  0  0  0  0  0  0  0  0  0  0
   10.8994   -0.0125   -1.1435 C   0  0  0  0  0  0  0  0  0  0  0  0
    8.3968   -0.2179   -0.9250 C   0  0  0  0  0  0  0  0  0  0  0  0
    7.2931   -0.4249   -0.0926 C   0  0  0  0  0  0  0  0  0  0  0  0
    5.9457   -0.4578   -0.3341 N   0  0  0  0  0  0  0  0  0  0  0  0
    3.0116   -0.2809   -0.0823 C   0  0  0  0  0  0  0  0  0  0  0  0
    3.4087    0.3696   -1.2395 N   0  0  0  0  0  0  0  0  0  0  0  0
   -0.7045   -0.7465   -0.2886 C   0  0  0  0  0  0  0  0  0  0  0  0
   -1.9023   -0.1953   -0.7638 C   0  0  0  0  0  0  0  0  0  0  0  0
   -9.2161    1.3575    0.6615 H   0  0  0  0  0  0  0  0  0  0  0  0
   -9.3760    0.4935    2.1930 H   0  0  0  0  0  0  0  0  0  0  0  0
   -9.4161   -0.4080    0.6766 H   0  0  0  0  0  0  0  0  0  0  0  0
   -7.0300    1.0655    1.9201 H   0  0  0  0  0  0  0  0  0  0  0  0
   -7.2155   -0.6535    1.8477 H   0  0  0  0  0  0  0  0  0  0  0  0
   -8.1300   -0.6854   -1.2418 H   0  0  0  0  0  0  0  0  0  0  0  0
   -6.4694   -0.7897   -1.8044 H   0  0  0  0  0  0  0  0  0  0  0  0
   -5.9091   -2.3816    0.0397 H   0  0  0  0  0  0  0  0  0  0  0  0
   -7.6286   -2.4191    0.4891 H   0  0  0  0  0  0  0  0  0  0  0  0
   -7.1194   -2.9736   -1.1048 H   0  0  0  0  0  0  0  0  0  0  0  0
   -7.7178    1.7619   -1.1020 H   0  0  0  0  0  0  0  0  0  0  0  0
   -6.5879    2.3528    0.1170 H   0  0  0  0  0  0  0  0  0  0  0  0
   -5.5714    2.8451   -1.9766 H   0  0  0  0  0  0  0  0  0  0  0  0
   -5.8438    1.2205   -2.6127 H   0  0  0  0  0  0  0  0  0  0  0  0
   -4.3752    0.6710   -0.4467 H   0  0  0  0  0  0  0  0  0  0  0  0
   -0.7500    2.8896   -1.6097 H   0  0  0  0  0  0  0  0  0  0  0  0
    1.3224    1.9451   -0.7239 H   0  0  0  0  0  0  0  0  0  0  0  0
    1.0284   -0.8355    2.2323 H   0  0  0  0  0  0  0  0  0  0  0  0
    1.1823   -2.3730    1.2727 H   0  0  0  0  0  0  0  0  0  0  0  0
    8.7563   -0.8733    2.9352 H   0  0  0  0  0  0  0  0  0  0  0  0
   10.7715   -0.5015    1.5241 H   0  0  0  0  0  0  0  0  0  0  0  0
   11.2850    0.9911   -0.9409 H   0  0  0  0  0  0  0  0  0  0  0  0
   11.6726   -0.7498   -0.9045 H   0  0  0  0  0  0  0  0  0  0  0  0
   10.6904   -0.0932   -2.2148 H   0  0  0  0  0  0  0  0  0  0  0  0
    8.2776   -0.0364   -1.9888 H   0  0  0  0  0  0  0  0  0  0  0  0
    5.4864   -0.3257   -1.2263 H   0  0  0  0  0  0  0  0  0  0  0  0
    3.6684    1.3324   -1.0115 H   0  0  0  0  0  0  0  0  0  0  0  0
    2.6076    0.4253   -1.8711 H   0  0  0  0  0  0  0  0  0  0  0  0
   -0.7196   -1.7835    0.0396 H   0  0  0  0  0  0  0  0  0  0  0  0
   -2.7935   -0.8172   -0.7897 H   0  0  0  0  0  0  0  0  0  0  0  0
  1  2  1  0
  2  3  1  0
  3  4  1  0
  4  5  1  0
  3  6  1  0
  6  7  1  0
  7  8  1  0
  8  9  1  0
  9 10  2  0
  9 11  1  0
 11 12  2  0
 12 13  1  0
 13 14  2  0
 14 15  1  0
 15 16  1  0
 16 17  1  0
 17 18  2  0
 17 19  1  0
 19 20  1  0
 20 21  2  0
 21 22  1  0
 22 23  2  0
 23 24  1  0
 24 25  2  0
 25 26  1  0
 25 27  1  0
 27 28  2  0
 28 29  1  0
 19 30  2  0
 30 31  1  0
 14 32  1  0
 32 33  2  0
 33 11  1  0
 30 15  1  0
 29 20  1  0
 28 22  1  0
  1 34  1  0
  1 35  1  0
  1 36  1  0
  2 37  1  0
  2 38  1  0
  4 39  1  0
  4 40  1  0
  5 41  1  0
  5 42  1  0
  5 43  1  0
  6 44  1  0
  6 45  1  0
  7 46  1  0
  7 47  1  0
  8 48  1  0
 12 49  1  0
 13 50  1  0
 16 51  1  0
 16 52  1  0
 23 53  1  0
 24 54  1  0
 26 55  1  0
 26 56  1  0
 26 57  1  0
 27 58  1  0
 29 59  1  0
 31 60  1  0
 31 61  1  0
 32 62  1  0
 33 63  1  0
M  END
$$$$
