
     RDKit          3D

 44 46  0  0  0  0  0  0  0  0999 V2000
    7.6696    0.3716    0.3349 C   0  0  0  0  0  0  0  0  0  0  0  0
    6.2421   -0.0069    0.0831 C   0  0  0  0  0  0  0  0  0  0  0  0
    5.9945   -1.2317   -0.6429 C   0  0  0  0  0  0  0  0  0  0  0  0
    4.7402   -1.6231   -0.8981 C   0  0  0  0  0  0  0  0  0  0  0  0
    3.6389   -0.8781   -0.4900 N   0  0  0  0  0  0  0  0  0  0  0  0
    2.3577   -1.3616   -0.7489 C   0  0  0  0  0  0  0  0  0  0  0  0
    2.1484   -2.4684   -1.2465 O   0  0  0  0  0  0  0  0  0  0  0  0
    1.2358   -0.4826   -0.3311 C   0  0  0  0  0  0  0  0  0  0  0  0
   -0.1679   -0.8202   -0.6990 C   0  0  0  0  0  0  0  0  0  0  0  0
   -0.4395   -1.3490   -1.7720 O   0  0  0  0  0  0  0  0  0  0  0  0
   -1.1272   -0.4933    0.2359 N   0  0  0  0  0  0  0  0  0  0  0  0
   -2.5511   -0.6117   -0.0469 C   0  0  0  0  0  0  0  0  0  0  0  0
   -3.3372   -0.8708    1.3178 C   0  0  0  0  0  0  0  0  0  0  0  0
   -4.6125   -0.2086    1.0057 C   0  0  0  0  0  0  0  0  0  0  0  0
   -5.9511    0.3838    0.8626 C   0  0  0  0  0  0  0  0  0  0  0  0
   -5.7343    1.2226   -0.4665 C   0  0  0  0  0  0  0  0  0  0  0  0
   -4.5600    0.7497   -1.4513 C   0  0  0  0  0  0  0  0  0  0  0  0
   -3.0483    0.6414   -0.9443 C   0  0  0  0  0  0  0  0  0  0  0  0
    1.5631    0.6376    0.3324 C   0  0  0  0  0  0  0  0  0  0  0  0
    0.6075    1.5224    0.7725 O   0  0  0  0  0  0  0  0  0  0  0  0
    2.8277    1.0413    0.6361 N   0  0  0  0  0  0  0  0  0  0  0  0
    3.8063    0.3021    0.2148 C   0  0  0  0  0  0  0  0  0  0  0  0
    5.2039    0.7335    0.5004 C   0  0  0  0  0  0  0  0  0  0  0  0
    8.1761   -0.4036    0.9199 H   0  0  0  0  0  0  0  0  0  0  0  0
    7.7492    1.3118    0.8912 H   0  0  0  0  0  0  0  0  0  0  0  0
    8.2067    0.4997   -0.6110 H   0  0  0  0  0  0  0  0  0  0  0  0
    6.8363   -1.8327   -0.9745 H   0  0  0  0  0  0  0  0  0  0  0  0
    4.5404   -2.5455   -1.4390 H   0  0  0  0  0  0  0  0  0  0  0  0
   -0.8473    0.1620    0.9594 H   0  0  0  0  0  0  0  0  0  0  0  0
   -2.6914   -1.5041   -0.6729 H   0  0  0  0  0  0  0  0  0  0  0  0
   -3.4321   -1.9446    1.5113 H   0  0  0  0  0  0  0  0  0  0  0  0
   -2.8278   -0.4176    2.1764 H   0  0  0  0  0  0  0  0  0  0  0  0
   -4.1399    0.7816    1.0434 H   0  0  0  0  0  0  0  0  0  0  0  0
   -4.7754   -0.8597    0.1372 H   0  0  0  0  0  0  0  0  0  0  0  0
   -6.7347   -0.3691    0.7228 H   0  0  0  0  0  0  0  0  0  0  0  0
   -6.2418    1.0344    1.6934 H   0  0  0  0  0  0  0  0  0  0  0  0
   -6.6779    1.2484   -1.0239 H   0  0  0  0  0  0  0  0  0  0  0  0
   -5.5144    2.2595   -0.1789 H   0  0  0  0  0  0  0  0  0  0  0  0
   -4.5548    1.4805   -2.2713 H   0  0  0  0  0  0  0  0  0  0  0  0
   -4.8438   -0.2067   -1.9090 H   0  0  0  0  0  0  0  0  0  0  0  0
   -2.7837    1.5758   -0.4310 H   0  0  0  0  0  0  0  0  0  0  0  0
   -2.4304    0.6297   -1.8529 H   0  0  0  0  0  0  0  0  0  0  0  0
    1.1545    2.2408    1.1454 H   0  0  0  0  0  0  0  0  0  0  0  0
    5.3258    1.6593    1.0498 H   0  0  0  0  0  0  0  0  0  0  0  0
  1  2  1  0
  2  3  1  0
  3  4  2  0
  4  5  1  0
  5  6  1  0
  6  7  2  0
  6  8  1  0
  8  9  1  0
  9 10  2  0
  9 11  1  0
 11 12  1  0
 12 13  1  0
 13 14  1  0
 14 15  1  0
 15 16  1  0
 16 17  1  0
 17 18  1  0
  8 19  2  0
 19 20  1  0
 19 21  1  0
 21 22  2  0
 22 23  1  0
 23  2  2  0
 22  5  1  0
 18 12  1  0
  1 24  1  0
  1 25  1  0
  1 26  1  0
  3 27  1  0
  4 28  1  0
 11 29  1  0
 12 30  1  0
 13 31  1  0
 13 32  1  0
 14 33  1  0
 14 34  1  0
 15 35  1  0
 15 36  1  0
 16 37  1  0
 16 38  1  0
 17 39  1  0
 17 40  1  0
 18 41  1  0
 18 42  1  0
 20 43  1  0
 23 44  1  0
M  END
$$$$
