
     RDKit          3D

 41 44  0  0  0  0  0  0  0  0999 V2000
    4.5287   -1.0946    2.1071 C   0  0  0  0  0  0  0  0  0  0  0  0
    3.6261   -1.7471    1.0732 C   0  0  0  0  0  0  0  0  0  0  0  0
    2.3680   -0.9482    0.8728 C   0  0  0  0  0  0  0  0  0  0  0  0
    1.2881   -1.2253    1.5416 N   0  0  0  0  0  0  0  0  0  0  0  0
    0.1455   -0.4633    1.3248 N   0  0  0  0  0  0  0  0  0  0  0  0
   -1.0356   -0.8261    2.0966 C   0  0  0  0  0  0  0  0  0  0  0  0
   -2.0281   -1.5590    1.1973 C   0  0  0  0  0  0  0  0  0  0  0  0
   -1.9816   -2.7690    0.9926 O   0  0  0  0  0  0  0  0  0  0  0  0
   -2.9436   -0.7284    0.5813 N   0  0  0  0  0  0  0  0  0  0  0  0
   -3.8298   -1.2558   -0.4280 C   0  0  0  0  0  0  0  0  0  0  0  0
   -4.8209   -0.1977   -0.7887 C   0  0  0  0  0  0  0  0  0  0  0  0
   -4.6615    0.8585   -1.6661 C   0  0  0  0  0  0  0  0  0  0  0  0
   -5.8298    1.6690   -1.7574 C   0  0  0  0  0  0  0  0  0  0  0  0
   -6.8414    1.2073   -0.9461 C   0  0  0  0  0  0  0  0  0  0  0  0
   -6.3827   -0.1955   -0.0829 S   0  0  0  0  0  0  0  0  0  0  0  0
    0.0709    0.6278    0.4472 C   0  0  0  0  0  0  0  0  0  0  0  0
   -0.9592    1.2807    0.2852 O   0  0  0  0  0  0  0  0  0  0  0  0
    1.2967    0.9026   -0.2590 C   0  0  0  0  0  0  0  0  0  0  0  0
    1.5790    1.8865   -1.1934 C   0  0  0  0  0  0  0  0  0  0  0  0
    2.9199    1.6474   -1.5181 C   0  0  0  0  0  0  0  0  0  0  0  0
    3.8540    2.1913   -2.3377 O   0  0  0  0  0  0  0  0  0  0  0  0
    4.9684    1.4347   -2.1355 C   0  0  0  0  0  0  0  0  0  0  0  0
    4.7760    0.4279   -1.2166 C   0  0  0  0  0  0  0  0  0  0  0  0
    3.4235    0.5944   -0.8330 C   0  0  0  0  0  0  0  0  0  0  0  0
    2.4096    0.1087   -0.0318 N   0  0  0  0  0  0  0  0  0  0  0  0
    4.0055   -0.9736    3.0625 H   0  0  0  0  0  0  0  0  0  0  0  0
    5.4166   -1.7112    2.2796 H   0  0  0  0  0  0  0  0  0  0  0  0
    4.8586   -0.1019    1.7868 H   0  0  0  0  0  0  0  0  0  0  0  0
    4.1498   -1.9101    0.1278 H   0  0  0  0  0  0  0  0  0  0  0  0
    3.3387   -2.7411    1.4388 H   0  0  0  0  0  0  0  0  0  0  0  0
   -0.7587   -1.4789    2.9313 H   0  0  0  0  0  0  0  0  0  0  0  0
   -1.4972    0.0775    2.5100 H   0  0  0  0  0  0  0  0  0  0  0  0
   -2.6740    0.2508    0.4938 H   0  0  0  0  0  0  0  0  0  0  0  0
   -3.2247   -1.5293   -1.3010 H   0  0  0  0  0  0  0  0  0  0  0  0
   -4.3064   -2.1697   -0.0546 H   0  0  0  0  0  0  0  0  0  0  0  0
   -3.7451    1.0419   -2.2154 H   0  0  0  0  0  0  0  0  0  0  0  0
   -5.9217    2.5469   -2.3848 H   0  0  0  0  0  0  0  0  0  0  0  0
   -7.8298    1.6253   -0.8161 H   0  0  0  0  0  0  0  0  0  0  0  0
    0.9118    2.6491   -1.5702 H   0  0  0  0  0  0  0  0  0  0  0  0
    5.8270    1.7375   -2.7217 H   0  0  0  0  0  0  0  0  0  0  0  0
    5.5094   -0.2947   -0.8919 H   0  0  0  0  0  0  0  0  0  0  0  0
  1  2  1  0
  2  3  1  0
  3  4  2  0
  4  5  1  0
  5  6  1  0
  6  7  1  0
  7  8  2  0
  7  9  1  0
  9 10  1  0
 10 11  1  0
 11 12  2  0
 12 13  1  0
 13 14  2  0
 14 15  1  0
  5 16  1  0
 16 17  2  0
 16 18  1  0
 18 19  2  0
 19 20  1  0
 20 21  1  0
 21 22  1  0
 22 23  2  0
 23 24  1  0
 24 25  1  0
 25  3  1  0
 15 11  1  0
 25 18  1  0
 24 20  2  0
  1 26  1  0
  1 27  1  0
  1 28  1  0
  2 29  1  0
  2 30  1  0
  6 31  1  0
  6 32  1  0
  9 33  1  0
 10 34  1  0
 10 35  1  0
 12 36  1  0
 13 37  1  0
 14 38  1  0
 19 39  1  0
 22 40  1  0
 23 41  1  0
M  END
$$$$
