
     RDKit          3D

 41 44  0  0  0  0  0  0  0  0999 V2000
    4.1806    1.6767   -1.4903 C   0  0  0  0  0  0  0  0  0  0  0  0
    3.1618    1.3792   -2.0527 C   0  0  0  0  0  0  0  0  0  0  0  0
    1.9155    1.0163   -2.7383 C   0  0  0  0  0  0  0  0  0  0  0  0
    1.2755   -0.1479   -2.1443 N   0  0  0  0  0  0  0  0  0  0  0  0
    0.2880   -0.1530   -1.1768 C   0  0  0  0  0  0  0  0  0  0  0  0
   -0.2714    1.0690   -0.5249 C   0  0  0  0  0  0  0  0  0  0  0  0
    0.6493    1.6627    0.5427 C   0  0  0  0  0  0  0  0  0  0  0  0
   -0.3120    2.3703    1.4667 C   0  0  0  0  0  0  0  0  0  0  0  0
    0.0046    3.1823    2.3206 O   0  0  0  0  0  0  0  0  0  0  0  0
   -1.5890    1.9086    1.1934 N   0  0  0  0  0  0  0  0  0  0  0  0
   -2.7329    2.1772    2.0448 C   0  0  0  0  0  0  0  0  0  0  0  0
   -2.8512    1.1260    3.1057 C   0  0  0  0  0  0  0  0  0  0  0  0
   -2.0546    0.9432    4.2206 C   0  0  0  0  0  0  0  0  0  0  0  0
   -2.4708   -0.1664    5.0102 C   0  0  0  0  0  0  0  0  0  0  0  0
   -3.5755   -0.7913    4.4773 C   0  0  0  0  0  0  0  0  0  0  0  0
   -4.1061   -0.0400    3.0362 S   0  0  0  0  0  0  0  0  0  0  0  0
   -1.5581    0.8092    0.2562 C   0  0  0  0  0  0  0  0  0  0  0  0
   -0.0922   -1.3882   -0.9146 N   0  0  0  0  0  0  0  0  0  0  0  0
    0.6737   -2.2025   -1.7061 C   0  0  0  0  0  0  0  0  0  0  0  0
    0.6759   -3.6013   -1.8069 C   0  0  0  0  0  0  0  0  0  0  0  0
    1.5661   -4.2116   -2.6981 C   0  0  0  0  0  0  0  0  0  0  0  0
    2.4371   -3.4436   -3.4721 C   0  0  0  0  0  0  0  0  0  0  0  0
    2.4472   -2.0464   -3.3849 C   0  0  0  0  0  0  0  0  0  0  0  0
    1.5458   -1.4558   -2.4893 C   0  0  0  0  0  0  0  0  0  0  0  0
    5.0837    1.9352   -0.9854 H   0  0  0  0  0  0  0  0  0  0  0  0
    2.1033    0.7894   -3.7935 H   0  0  0  0  0  0  0  0  0  0  0  0
    1.2039    1.8466   -2.7216 H   0  0  0  0  0  0  0  0  0  0  0  0
   -0.4869    1.8345   -1.2821 H   0  0  0  0  0  0  0  0  0  0  0  0
    1.3538    2.3805    0.1148 H   0  0  0  0  0  0  0  0  0  0  0  0
    1.1911    0.8992    1.1109 H   0  0  0  0  0  0  0  0  0  0  0  0
   -2.6001    3.1565    2.5192 H   0  0  0  0  0  0  0  0  0  0  0  0
   -3.6235    2.2334    1.4096 H   0  0  0  0  0  0  0  0  0  0  0  0
   -1.2060    1.5781    4.4516 H   0  0  0  0  0  0  0  0  0  0  0  0
   -1.9832   -0.4895    5.9216 H   0  0  0  0  0  0  0  0  0  0  0  0
   -4.0992   -1.6543    4.8648 H   0  0  0  0  0  0  0  0  0  0  0  0
   -1.5347   -0.1299    0.8202 H   0  0  0  0  0  0  0  0  0  0  0  0
   -2.4439    0.8318   -0.3861 H   0  0  0  0  0  0  0  0  0  0  0  0
   -0.0017   -4.1900   -1.1988 H   0  0  0  0  0  0  0  0  0  0  0  0
    1.5787   -5.2955   -2.7832 H   0  0  0  0  0  0  0  0  0  0  0  0
    3.1240   -3.9404   -4.1546 H   0  0  0  0  0  0  0  0  0  0  0  0
    3.1334   -1.4589   -3.9852 H   0  0  0  0  0  0  0  0  0  0  0  0
  1  2  3  0
  2  3  1  0
  3  4  1  0
  4  5  1  0
  5  6  1  0
  6  7  1  0
  7  8  1  0
  8  9  2  0
  8 10  1  0
 10 11  1  0
 11 12  1  0
 12 13  2  0
 13 14  1  0
 14 15  2  0
 15 16  1  0
 10 17  1  0
  5 18  2  0
 18 19  1  0
 19 20  2  0
 20 21  1  0
 21 22  2  0
 22 23  1  0
 23 24  2  0
 24  4  1  0
 17  6  1  0
 24 19  1  0
 16 12  1  0
  1 25  1  0
  3 26  1  0
  3 27  1  0
  6 28  1  0
  7 29  1  0
  7 30  1  0
 11 31  1  0
 11 32  1  0
 13 33  1  0
 14 34  1  0
 15 35  1  0
 17 36  1  0
 17 37  1  0
 20 38  1  0
 21 39  1  0
 22 40  1  0
 23 41  1  0
M  END
$$$$
