
     RDKit          3D

 43 45  0  0  0  0  0  0  0  0999 V2000
    5.5784   -1.6667    0.1347 C   0  0  0  0  0  0  0  0  0  0  0  0
    5.7074    0.1313    0.3301 S   0  0  0  0  0  0  0  0  0  0  0  0
    4.2869    0.6347   -0.6254 C   0  0  0  0  0  0  0  0  0  0  0  0
    4.2091    0.3817   -1.9963 C   0  0  0  0  0  0  0  0  0  0  0  0
    3.0899    0.7937   -2.7185 C   0  0  0  0  0  0  0  0  0  0  0  0
    2.0449    1.4655   -2.0771 C   0  0  0  0  0  0  0  0  0  0  0  0
    2.1142    1.7382   -0.7103 C   0  0  0  0  0  0  0  0  0  0  0  0
    1.1053    2.4046    0.0131 N   0  0  0  0  0  0  0  0  0  0  0  0
   -0.1029    2.8946   -0.4579 C   0  0  0  0  0  0  0  0  0  0  0  0
   -0.4584    2.9181   -1.6344 O   0  0  0  0  0  0  0  0  0  0  0  0
   -0.9712    3.5350    0.6231 C   0  0  0  0  0  0  0  0  0  0  0  0
   -0.8963    2.6609    2.2229 S   0  0  0  0  0  0  0  0  0  0  0  0
   -1.5480    1.1194    1.7556 C   0  0  0  0  0  0  0  0  0  0  0  0
   -2.2425    0.9541    0.6851 N   0  0  0  0  0  0  0  0  0  0  0  0
   -2.6813   -0.3215    0.4186 C   0  0  0  0  0  0  0  0  0  0  0  0
   -2.4143   -1.3871    1.1951 C   0  0  0  0  0  0  0  0  0  0  0  0
   -1.6109   -1.1563    2.4176 C   0  0  0  0  0  0  0  0  0  0  0  0
   -1.2961   -2.0630    3.1813 O   0  0  0  0  0  0  0  0  0  0  0  0
   -1.2377    0.1339    2.6327 N   0  0  0  0  0  0  0  0  0  0  0  0
   -2.8634   -2.7873    0.9017 C   0  0  0  0  0  0  0  0  0  0  0  0
   -3.3877   -2.9551   -0.5264 C   0  0  0  0  0  0  0  0  0  0  0  0
   -4.2757   -1.7818   -0.9261 C   0  0  0  0  0  0  0  0  0  0  0  0
   -3.5112   -0.4588   -0.8380 C   0  0  0  0  0  0  0  0  0  0  0  0
    3.2443    1.3217    0.0081 C   0  0  0  0  0  0  0  0  0  0  0  0
    4.6093   -2.0209    0.4993 H   0  0  0  0  0  0  0  0  0  0  0  0
    5.7016   -1.9599   -0.9113 H   0  0  0  0  0  0  0  0  0  0  0  0
    6.3670   -2.1467    0.7209 H   0  0  0  0  0  0  0  0  0  0  0  0
    5.0180   -0.1254   -2.5166 H   0  0  0  0  0  0  0  0  0  0  0  0
    3.0279    0.5968   -3.7865 H   0  0  0  0  0  0  0  0  0  0  0  0
    1.1913    1.7648   -2.6781 H   0  0  0  0  0  0  0  0  0  0  0  0
    1.2648    2.5168    1.0079 H   0  0  0  0  0  0  0  0  0  0  0  0
   -0.6184    4.5605    0.7712 H   0  0  0  0  0  0  0  0  0  0  0  0
   -2.0088    3.5808    0.2780 H   0  0  0  0  0  0  0  0  0  0  0  0
   -0.6946    0.3372    3.4560 H   0  0  0  0  0  0  0  0  0  0  0  0
   -3.6556   -3.0551    1.6122 H   0  0  0  0  0  0  0  0  0  0  0  0
   -2.0401   -3.4953    1.0542 H   0  0  0  0  0  0  0  0  0  0  0  0
   -2.5414   -3.0259   -1.2227 H   0  0  0  0  0  0  0  0  0  0  0  0
   -3.9453   -3.8950   -0.6070 H   0  0  0  0  0  0  0  0  0  0  0  0
   -4.6510   -1.9236   -1.9461 H   0  0  0  0  0  0  0  0  0  0  0  0
   -5.1519   -1.7452   -0.2656 H   0  0  0  0  0  0  0  0  0  0  0  0
   -4.2334    0.3651   -0.8987 H   0  0  0  0  0  0  0  0  0  0  0  0
   -2.8431   -0.3660   -1.7045 H   0  0  0  0  0  0  0  0  0  0  0  0
    3.3209    1.5272    1.0731 H   0  0  0  0  0  0  0  0  0  0  0  0
  1  2  1  0
  2  3  1  0
  3  4  2  0
  4  5  1  0
  5  6  2  0
  6  7  1  0
  7  8  1  0
  8  9  1  0
  9 10  2  0
  9 11  1  0
 11 12  1  0
 12 13  1  0
 13 14  2  0
 14 15  1  0
 15 16  2  0
 16 17  1  0
 17 18  2  0
 17 19  1  0
 16 20  1  0
 20 21  1  0
 21 22  1  0
 22 23  1  0
  7 24  2  0
 24  3  1  0
 19 13  1  0
 23 15  1  0
  1 25  1  0
  1 26  1  0
  1 27  1  0
  4 28  1  0
  5 29  1  0
  6 30  1  0
  8 31  1  0
 11 32  1  0
 11 33  1  0
 19 34  1  0
 20 35  1  0
 20 36  1  0
 21 37  1  0
 21 38  1  0
 22 39  1  0
 22 40  1  0
 23 41  1  0
 23 42  1  0
 24 43  1  0
M  END
$$$$
