
     RDKit          3D

 42 44  0  0  0  0  0  0  0  0999 V2000
    5.9826   -1.7572    0.9673 C   0  0  0  0  0  0  0  0  0  0  0  0
    4.5991   -2.0466    0.8173 O   0  0  0  0  0  0  0  0  0  0  0  0
    3.7979   -1.0421    0.3469 C   0  0  0  0  0  0  0  0  0  0  0  0
    4.2164    0.2445    0.0102 C   0  0  0  0  0  0  0  0  0  0  0  0
    3.2949    1.1868   -0.4597 C   0  0  0  0  0  0  0  0  0  0  0  0
    1.9478    0.8461   -0.5938 C   0  0  0  0  0  0  0  0  0  0  0  0
    0.9617    1.6928   -1.0453 O   0  0  0  0  0  0  0  0  0  0  0  0
    1.3162    3.0575   -1.2297 C   0  0  0  0  0  0  0  0  0  0  0  0
    1.5202   -0.4559   -0.2609 C   0  0  0  0  0  0  0  0  0  0  0  0
    0.1434   -0.7266   -0.4201 N   0  0  0  0  0  0  0  0  0  0  0  0
   -0.5427   -1.8918   -0.1632 C   0  0  0  0  0  0  0  0  0  0  0  0
   -0.0508   -2.9551    0.1924 O   0  0  0  0  0  0  0  0  0  0  0  0
   -1.9719   -1.7981   -0.4291 C   0  0  0  0  0  0  0  0  0  0  0  0
   -2.7282   -2.8040   -1.0717 C   0  0  0  0  0  0  0  0  0  0  0  0
   -3.9925   -2.4459   -1.2872 N   0  0  0  0  0  0  0  0  0  0  0  0
   -4.0856   -1.2230   -0.7270 N   0  0  0  0  0  0  0  0  0  0  0  0
   -5.4078   -0.6450   -0.6300 C   0  0  0  0  0  0  0  0  0  0  0  0
   -2.8959   -0.7856   -0.1896 C   0  0  0  0  0  0  0  0  0  0  0  0
   -2.7278    0.4152    0.5064 N   0  0  0  0  0  0  0  0  0  0  0  0
   -1.8242    0.6487    1.5266 C   0  0  0  0  0  0  0  0  0  0  0  0
   -1.9390    1.9503    1.9607 C   0  0  0  0  0  0  0  0  0  0  0  0
   -2.9480    2.5547    1.1887 C   0  0  0  0  0  0  0  0  0  0  0  0
   -3.4132    1.6001    0.3109 C   0  0  0  0  0  0  0  0  0  0  0  0
    2.4487   -1.3867    0.2096 C   0  0  0  0  0  0  0  0  0  0  0  0
    6.4403   -1.5067    0.0046 H   0  0  0  0  0  0  0  0  0  0  0  0
    6.4741   -2.6591    1.3448 H   0  0  0  0  0  0  0  0  0  0  0  0
    6.1416   -0.9597    1.7006 H   0  0  0  0  0  0  0  0  0  0  0  0
    5.2542    0.5483    0.1004 H   0  0  0  0  0  0  0  0  0  0  0  0
    3.6649    2.1740   -0.7151 H   0  0  0  0  0  0  0  0  0  0  0  0
    1.6972    3.4981   -0.3024 H   0  0  0  0  0  0  0  0  0  0  0  0
    2.0357    3.1685   -2.0473 H   0  0  0  0  0  0  0  0  0  0  0  0
    0.4093    3.6026   -1.5086 H   0  0  0  0  0  0  0  0  0  0  0  0
   -0.3820    0.0651   -0.7774 H   0  0  0  0  0  0  0  0  0  0  0  0
   -2.3872   -3.7730   -1.4167 H   0  0  0  0  0  0  0  0  0  0  0  0
   -6.1568   -1.4291   -0.7764 H   0  0  0  0  0  0  0  0  0  0  0  0
   -5.5107    0.1079   -1.4143 H   0  0  0  0  0  0  0  0  0  0  0  0
   -5.5442   -0.2140    0.3640 H   0  0  0  0  0  0  0  0  0  0  0  0
   -1.1867   -0.1428    1.8978 H   0  0  0  0  0  0  0  0  0  0  0  0
   -1.3587    2.4038    2.7542 H   0  0  0  0  0  0  0  0  0  0  0  0
   -3.2953    3.5780    1.2539 H   0  0  0  0  0  0  0  0  0  0  0  0
   -4.1502    1.7004   -0.4713 H   0  0  0  0  0  0  0  0  0  0  0  0
    2.1531   -2.3957    0.4796 H   0  0  0  0  0  0  0  0  0  0  0  0
  1  2  1  0
  2  3  1  0
  3  4  2  0
  4  5  1  0
  5  6  2  0
  6  7  1  0
  7  8  1  0
  6  9  1  0
  9 10  1  0
 10 11  1  0
 11 12  2  0
 11 13  1  0
 13 14  1  0
 14 15  2  0
 15 16  1  0
 16 17  1  0
 16 18  1  0
 18 19  1  0
 19 20  1  0
 20 21  2  0
 21 22  1  0
 22 23  2  0
  9 24  2  0
 24  3  1  0
 18 13  2  0
 23 19  1  0
  1 25  1  0
  1 26  1  0
  1 27  1  0
  4 28  1  0
  5 29  1  0
  8 30  1  0
  8 31  1  0
  8 32  1  0
 10 33  1  0
 14 34  1  0
 17 35  1  0
 17 36  1  0
 17 37  1  0
 20 38  1  0
 21 39  1  0
 22 40  1  0
 23 41  1  0
 24 42  1  0
M  END
$$$$
