
     RDKit          3D

 39 42  0  0  0  0  0  0  0  0999 V2000
   -6.7857   -1.5527   -0.9834 N   0  0  0  0  0  0  0  0  0  0  0  0
   -6.4558   -0.3169   -0.4943 C   0  0  0  0  0  0  0  0  0  0  0  0
   -7.3269    0.4650   -0.1351 O   0  0  0  0  0  0  0  0  0  0  0  0
   -5.0139    0.0436   -0.4402 C   0  0  0  0  0  0  0  0  0  0  0  0
   -4.0041   -0.9188   -0.4512 C   0  0  0  0  0  0  0  0  0  0  0  0
   -2.6603   -0.5326   -0.3420 C   0  0  0  0  0  0  0  0  0  0  0  0
   -2.2886    0.8117   -0.2077 C   0  0  0  0  0  0  0  0  0  0  0  0
   -0.9459    1.2102   -0.0373 N   0  0  0  0  0  0  0  0  0  0  0  0
   -0.7050    2.1630    1.0511 C   0  0  0  0  0  0  0  0  0  0  0  0
    0.7557    1.9024    1.3322 C   0  0  0  0  0  0  0  0  0  0  0  0
    1.4286    2.5237    2.1397 O   0  0  0  0  0  0  0  0  0  0  0  0
    1.2505    0.8110    0.4675 C   0  0  0  0  0  0  0  0  0  0  0  0
    2.5615    0.2921    0.3939 C   0  0  0  0  0  0  0  0  0  0  0  0
    3.1535   -0.1389   -0.7118 N   0  0  0  0  0  0  0  0  0  0  0  0
    4.4305   -0.6001   -0.4365 C   0  0  0  0  0  0  0  0  0  0  0  0
    5.3465   -1.0973   -1.3853 C   0  0  0  0  0  0  0  0  0  0  0  0
    6.6033   -1.5470   -0.9682 C   0  0  0  0  0  0  0  0  0  0  0  0
    6.9477   -1.5232    0.3813 C   0  0  0  0  0  0  0  0  0  0  0  0
    6.0614   -1.0204    1.3410 C   0  0  0  0  0  0  0  0  0  0  0  0
    4.8075   -0.5580    0.9029 C   0  0  0  0  0  0  0  0  0  0  0  0
    3.5242    0.1156    1.8210 S   0  0  0  0  0  0  0  0  0  0  0  0
    0.2094    0.4704   -0.3161 C   0  0  0  0  0  0  0  0  0  0  0  0
    0.2719   -0.4603   -1.3308 N   0  0  0  0  0  0  0  0  0  0  0  0
   -3.3200    1.7656   -0.2126 C   0  0  0  0  0  0  0  0  0  0  0  0
   -4.6648    1.3894   -0.3221 C   0  0  0  0  0  0  0  0  0  0  0  0
   -6.1710   -2.0388   -1.6175 H   0  0  0  0  0  0  0  0  0  0  0  0
   -7.7765   -1.7210   -1.0982 H   0  0  0  0  0  0  0  0  0  0  0  0
   -4.2355   -1.9757   -0.4975 H   0  0  0  0  0  0  0  0  0  0  0  0
   -1.9054   -1.3131   -0.3160 H   0  0  0  0  0  0  0  0  0  0  0  0
   -1.2897    1.9289    1.9501 H   0  0  0  0  0  0  0  0  0  0  0  0
   -0.8444    3.1963    0.7224 H   0  0  0  0  0  0  0  0  0  0  0  0
    5.0715   -1.1262   -2.4339 H   0  0  0  0  0  0  0  0  0  0  0  0
    7.3114   -1.9259   -1.7040 H   0  0  0  0  0  0  0  0  0  0  0  0
    7.9244   -1.8864    0.6980 H   0  0  0  0  0  0  0  0  0  0  0  0
    6.3351   -0.9945    2.3941 H   0  0  0  0  0  0  0  0  0  0  0  0
    1.2377   -0.6451   -1.6239 H   0  0  0  0  0  0  0  0  0  0  0  0
   -0.3108   -0.1756   -2.1157 H   0  0  0  0  0  0  0  0  0  0  0  0
   -3.0904    2.8247   -0.1364 H   0  0  0  0  0  0  0  0  0  0  0  0
   -5.4375    2.1551   -0.3042 H   0  0  0  0  0  0  0  0  0  0  0  0
  1  2  1  0
  2  3  2  0
  2  4  1  0
  4  5  2  0
  5  6  1  0
  6  7  2  0
  7  8  1  0
  8  9  1  0
  9 10  1  0
 10 11  2  0
 10 12  1  0
 12 13  1  0
 13 14  2  0
 14 15  1  0
 15 16  2  0
 16 17  1  0
 17 18  2  0
 18 19  1  0
 19 20  2  0
 20 21  1  0
 12 22  2  0
 22 23  1  0
  7 24  1  0
 24 25  2  0
 25  4  1  0
 22  8  1  0
 21 13  1  0
 20 15  1  0
  1 26  1  0
  1 27  1  0
  5 28  1  0
  6 29  1  0
  9 30  1  0
  9 31  1  0
 16 32  1  0
 17 33  1  0
 18 34  1  0
 19 35  1  0
 23 36  1  0
 23 37  1  0
 24 38  1  0
 25 39  1  0
M  END
$$$$
