
     RDKit          3D

 44 47  0  0  0  0  0  0  0  0999 V2000
   -2.6590    2.6273   -1.1802 C   0  0  0  0  0  0  0  0  0  0  0  0
   -2.6657    1.2538   -0.7218 N   0  0  0  0  0  0  0  0  0  0  0  0
   -3.4766    0.2380   -1.2017 C   0  0  0  0  0  0  0  0  0  0  0  0
   -4.4642    0.2324   -2.2014 C   0  0  0  0  0  0  0  0  0  0  0  0
   -5.1286   -0.9679   -2.4712 C   0  0  0  0  0  0  0  0  0  0  0  0
   -4.8230   -2.1294   -1.7703 C   0  0  0  0  0  0  0  0  0  0  0  0
   -3.8399   -2.1211   -0.7763 C   0  0  0  0  0  0  0  0  0  0  0  0
   -3.1551   -0.9235   -0.4841 C   0  0  0  0  0  0  0  0  0  0  0  0
   -2.1345   -0.5688    0.4314 C   0  0  0  0  0  0  0  0  0  0  0  0
   -1.4096   -1.3266    1.4106 C   0  0  0  0  0  0  0  0  0  0  0  0
   -0.4879   -0.7693    2.1425 N   0  0  0  0  0  0  0  0  0  0  0  0
   -0.2246    0.6043    1.9947 N   0  0  0  0  0  0  0  0  0  0  0  0
    0.8183    1.1668    2.8519 C   0  0  0  0  0  0  0  0  0  0  0  0
    2.1943    1.0813    2.1920 C   0  0  0  0  0  0  0  0  0  0  0  0
    3.1121    1.8430    2.4896 O   0  0  0  0  0  0  0  0  0  0  0  0
    2.3606    0.0006    1.3492 N   0  0  0  0  0  0  0  0  0  0  0  0
    3.5504   -0.1777    0.5508 C   0  0  0  0  0  0  0  0  0  0  0  0
    3.6880   -1.6050    0.0270 C   0  0  0  0  0  0  0  0  0  0  0  0
    4.5655   -1.4386   -1.2017 C   0  0  0  0  0  0  0  0  0  0  0  0
    4.0075   -0.1847   -1.8571 C   0  0  0  0  0  0  0  0  0  0  0  0
    3.5609    0.7118   -0.7014 C   0  0  0  0  0  0  0  0  0  0  0  0
   -0.8576    1.4469    1.0581 C   0  0  0  0  0  0  0  0  0  0  0  0
   -0.5841    2.6353    0.9222 O   0  0  0  0  0  0  0  0  0  0  0  0
   -1.8527    0.7665    0.2708 C   0  0  0  0  0  0  0  0  0  0  0  0
   -3.3765    2.7635   -1.9904 H   0  0  0  0  0  0  0  0  0  0  0  0
   -1.6563    2.8647   -1.5447 H   0  0  0  0  0  0  0  0  0  0  0  0
   -2.9332    3.2716   -0.3410 H   0  0  0  0  0  0  0  0  0  0  0  0
   -4.7183    1.1277   -2.7597 H   0  0  0  0  0  0  0  0  0  0  0  0
   -5.8967   -0.9914   -3.2414 H   0  0  0  0  0  0  0  0  0  0  0  0
   -5.3529   -3.0517   -1.9962 H   0  0  0  0  0  0  0  0  0  0  0  0
   -3.6137   -3.0364   -0.2371 H   0  0  0  0  0  0  0  0  0  0  0  0
   -1.6310   -2.3987    1.5317 H   0  0  0  0  0  0  0  0  0  0  0  0
    0.8431    0.6151    3.7973 H   0  0  0  0  0  0  0  0  0  0  0  0
    0.5965    2.2190    3.0568 H   0  0  0  0  0  0  0  0  0  0  0  0
    1.5175   -0.5242    1.1309 H   0  0  0  0  0  0  0  0  0  0  0  0
    4.4230    0.0711    1.1687 H   0  0  0  0  0  0  0  0  0  0  0  0
    2.7126   -2.0196   -0.2591 H   0  0  0  0  0  0  0  0  0  0  0  0
    4.1317   -2.2765    0.7691 H   0  0  0  0  0  0  0  0  0  0  0  0
    5.6093   -1.2797   -0.9055 H   0  0  0  0  0  0  0  0  0  0  0  0
    4.5250   -2.3071   -1.8651 H   0  0  0  0  0  0  0  0  0  0  0  0
    3.1397   -0.4434   -2.4771 H   0  0  0  0  0  0  0  0  0  0  0  0
    4.7425    0.3068   -2.5027 H   0  0  0  0  0  0  0  0  0  0  0  0
    4.2635    1.5425   -0.5638 H   0  0  0  0  0  0  0  0  0  0  0  0
    2.5798    1.1514   -0.9182 H   0  0  0  0  0  0  0  0  0  0  0  0
  1  2  1  0
  2  3  1  0
  3  4  2  0
  4  5  1  0
  5  6  2  0
  6  7  1  0
  7  8  2  0
  8  9  1  0
  9 10  1  0
 10 11  2  0
 11 12  1  0
 12 13  1  0
 13 14  1  0
 14 15  2  0
 14 16  1  0
 16 17  1  0
 17 18  1  0
 18 19  1  0
 19 20  1  0
 20 21  1  0
 12 22  1  0
 22 23  2  0
 22 24  1  0
 24  2  1  0
  8  3  1  0
 24  9  2  0
 21 17  1  0
  1 25  1  0
  1 26  1  0
  1 27  1  0
  4 28  1  0
  5 29  1  0
  6 30  1  0
  7 31  1  0
 10 32  1  0
 13 33  1  0
 13 34  1  0
 16 35  1  0
 17 36  1  0
 18 37  1  0
 18 38  1  0
 19 39  1  0
 19 40  1  0
 20 41  1  0
 20 42  1  0
 21 43  1  0
 21 44  1  0
M  END
$$$$
