
     RDKit          3D

 30 31  0  0  0  0  0  0  0  0999 V2000
    5.8132    0.9458   -1.1890 C   0  0  0  0  0  0  0  0  0  0  0  0
    4.3860    0.7450   -1.1597 N   0  0  0  0  0  0  0  0  0  0  0  0
    3.8223   -0.2507   -0.3907 C   0  0  0  0  0  0  0  0  0  0  0  0
    4.4752   -1.0668    0.2489 O   0  0  0  0  0  0  0  0  0  0  0  0
    2.3111   -0.2343   -0.4213 C   0  0  0  0  0  0  0  0  0  0  0  0
    1.7303   -1.3598    0.4265 C   0  0  0  0  0  0  0  0  0  0  0  0
    0.2503   -1.3483    0.3907 C   0  0  0  0  0  0  0  0  0  0  0  0
   -0.5831   -0.3335    0.4236 N   0  0  0  0  0  0  0  0  0  0  0  0
   -1.8136   -0.9563    0.3455 C   0  0  0  0  0  0  0  0  0  0  0  0
   -3.0546   -0.1967    0.3884 C   0  0  0  0  0  0  0  0  0  0  0  0
   -3.1274    0.8969    1.2727 C   0  0  0  0  0  0  0  0  0  0  0  0
   -4.2915    1.6611    1.3796 C   0  0  0  0  0  0  0  0  0  0  0  0
   -5.3997    1.3486    0.5984 C   0  0  0  0  0  0  0  0  0  0  0  0
   -5.3393    0.2792   -0.2947 C   0  0  0  0  0  0  0  0  0  0  0  0
   -4.1733   -0.4913   -0.4062 C   0  0  0  0  0  0  0  0  0  0  0  0
   -4.1890   -1.7482   -1.5958 Cl  0  0  0  0  0  0  0  0  0  0  0  0
   -1.7412   -2.2967    0.3104 N   0  0  0  0  0  0  0  0  0  0  0  0
   -0.3738   -2.5580    0.3271 O   0  0  0  0  0  0  0  0  0  0  0  0
    6.3353   -0.0146   -1.1935 H   0  0  0  0  0  0  0  0  0  0  0  0
    6.0656    1.5120   -2.0885 H   0  0  0  0  0  0  0  0  0  0  0  0
    6.1029    1.5145   -0.3013 H   0  0  0  0  0  0  0  0  0  0  0  0
    3.7913    1.4838   -1.5142 H   0  0  0  0  0  0  0  0  0  0  0  0
    1.9828   -0.3335   -1.4637 H   0  0  0  0  0  0  0  0  0  0  0  0
    1.9704    0.7404   -0.0495 H   0  0  0  0  0  0  0  0  0  0  0  0
    2.1037   -2.3272    0.0684 H   0  0  0  0  0  0  0  0  0  0  0  0
    2.0596   -1.2583    1.4679 H   0  0  0  0  0  0  0  0  0  0  0  0
   -2.2691    1.1545    1.8920 H   0  0  0  0  0  0  0  0  0  0  0  0
   -4.3301    2.4984    2.0723 H   0  0  0  0  0  0  0  0  0  0  0  0
   -6.3081    1.9408    0.6773 H   0  0  0  0  0  0  0  0  0  0  0  0
   -6.2060    0.0530   -0.9126 H   0  0  0  0  0  0  0  0  0  0  0  0
  1  2  1  0
  2  3  1  0
  3  4  2  0
  3  5  1  0
  5  6  1  0
  6  7  1  0
  7  8  2  0
  8  9  1  0
  9 10  1  0
 10 11  2  0
 11 12  1  0
 12 13  2  0
 13 14  1  0
 14 15  2  0
 15 16  1  0
  9 17  2  0
 17 18  1  0
 18  7  1  0
 15 10  1  0
  1 19  1  0
  1 20  1  0
  1 21  1  0
  2 22  1  0
  5 23  1  0
  5 24  1  0
  6 25  1  0
  6 26  1  0
 11 27  1  0
 12 28  1  0
 13 29  1  0
 14 30  1  0
M  END
$$$$
