
     RDKit          3D

 39 41  0  0  0  0  0  0  0  0999 V2000
    6.8513    0.9188    0.3048 C   0  0  0  0  0  0  0  0  0  0  0  0
    6.3749   -0.4931    0.5984 C   0  0  0  0  0  0  0  0  0  0  0  0
    5.4331   -0.9244   -0.3830 O   0  0  0  0  0  0  0  0  0  0  0  0
    4.1053   -0.6794   -0.1783 C   0  0  0  0  0  0  0  0  0  0  0  0
    3.5518    0.0829    0.8495 C   0  0  0  0  0  0  0  0  0  0  0  0
    2.1645    0.2531    0.9304 C   0  0  0  0  0  0  0  0  0  0  0  0
    1.3199   -0.3268   -0.0237 C   0  0  0  0  0  0  0  0  0  0  0  0
   -0.1511   -0.1162    0.1051 C   0  0  0  0  0  0  0  0  0  0  0  0
   -0.6206    0.0289    1.2267 O   0  0  0  0  0  0  0  0  0  0  0  0
   -0.8327   -0.0599   -1.0878 N   0  0  0  0  0  0  0  0  0  0  0  0
   -2.1893    0.0993   -1.2069 C   0  0  0  0  0  0  0  0  0  0  0  0
   -2.6131    0.2961   -2.4930 O   0  0  0  0  0  0  0  0  0  0  0  0
   -3.9860    0.4744   -2.5241 N   0  0  0  0  0  0  0  0  0  0  0  0
   -4.3715    0.3712   -1.2526 C   0  0  0  0  0  0  0  0  0  0  0  0
   -3.2863    0.1118   -0.3772 C   0  0  0  0  0  0  0  0  0  0  0  0
   -3.4670   -0.0634    1.0880 C   0  0  0  0  0  0  0  0  0  0  0  0
   -4.9488   -0.2811    1.4542 C   0  0  0  0  0  0  0  0  0  0  0  0
   -5.8856    0.6748    0.6974 C   0  0  0  0  0  0  0  0  0  0  0  0
   -5.7900    0.4798   -0.8251 C   0  0  0  0  0  0  0  0  0  0  0  0
    1.8720   -1.1021   -1.0486 C   0  0  0  0  0  0  0  0  0  0  0  0
    3.2583   -1.2678   -1.1231 C   0  0  0  0  0  0  0  0  0  0  0  0
    7.2605    0.9816   -0.7091 H   0  0  0  0  0  0  0  0  0  0  0  0
    6.0293    1.6386    0.3591 H   0  0  0  0  0  0  0  0  0  0  0  0
    7.6259    1.2208    1.0155 H   0  0  0  0  0  0  0  0  0  0  0  0
    5.9983   -0.6042    1.6211 H   0  0  0  0  0  0  0  0  0  0  0  0
    7.2336   -1.1698    0.5206 H   0  0  0  0  0  0  0  0  0  0  0  0
    4.1646    0.5649    1.6036 H   0  0  0  0  0  0  0  0  0  0  0  0
    1.7444    0.8462    1.7412 H   0  0  0  0  0  0  0  0  0  0  0  0
   -0.3241   -0.0177   -1.9606 H   0  0  0  0  0  0  0  0  0  0  0  0
   -2.8946   -0.9236    1.4502 H   0  0  0  0  0  0  0  0  0  0  0  0
   -3.1028    0.8336    1.6026 H   0  0  0  0  0  0  0  0  0  0  0  0
   -5.0779   -0.1533    2.5350 H   0  0  0  0  0  0  0  0  0  0  0  0
   -5.2330   -1.3153    1.2196 H   0  0  0  0  0  0  0  0  0  0  0  0
   -5.6216    1.7092    0.9527 H   0  0  0  0  0  0  0  0  0  0  0  0
   -6.9208    0.5190    1.0210 H   0  0  0  0  0  0  0  0  0  0  0  0
   -6.2868    1.3133   -1.3339 H   0  0  0  0  0  0  0  0  0  0  0  0
   -6.3167   -0.4400   -1.1071 H   0  0  0  0  0  0  0  0  0  0  0  0
    1.2469   -1.6076   -1.7791 H   0  0  0  0  0  0  0  0  0  0  0  0
    3.6859   -1.8728   -1.9202 H   0  0  0  0  0  0  0  0  0  0  0  0
  1  2  1  0
  2  3  1  0
  3  4  1  0
  4  5  2  0
  5  6  1  0
  6  7  2  0
  7  8  1  0
  8  9  2  0
  8 10  1  0
 10 11  1  0
 11 12  1  0
 12 13  1  0
 13 14  2  0
 14 15  1  0
 15 16  1  0
 16 17  1  0
 17 18  1  0
 18 19  1  0
  7 20  1  0
 20 21  2  0
 21  4  1  0
 15 11  2  0
 19 14  1  0
  1 22  1  0
  1 23  1  0
  1 24  1  0
  2 25  1  0
  2 26  1  0
  5 27  1  0
  6 28  1  0
 10 29  1  0
 16 30  1  0
 16 31  1  0
 17 32  1  0
 17 33  1  0
 18 34  1  0
 18 35  1  0
 19 36  1  0
 19 37  1  0
 20 38  1  0
 21 39  1  0
M  END
$$$$
