
     RDKit          3D

 47 49  0  0  0  0  0  0  0  0999 V2000
    8.0201    0.2106    1.0126 C   0  0  0  0  0  0  0  0  0  0  0  0
    7.0168    0.3212    0.0113 O   0  0  0  0  0  0  0  0  0  0  0  0
    5.7188    0.1949    0.4220 C   0  0  0  0  0  0  0  0  0  0  0  0
    5.2883   -0.0209    1.7290 C   0  0  0  0  0  0  0  0  0  0  0  0
    3.9205   -0.1334    2.0044 C   0  0  0  0  0  0  0  0  0  0  0  0
    2.9709   -0.0297    0.9849 C   0  0  0  0  0  0  0  0  0  0  0  0
    1.6754   -0.1590    1.3992 O   0  0  0  0  0  0  0  0  0  0  0  0
    0.6586    0.0173    0.4218 C   0  0  0  0  0  0  0  0  0  0  0  0
   -0.7381   -0.1094    1.0468 C   0  0  0  0  0  0  0  0  0  0  0  0
   -0.8854   -0.4714    2.2169 O   0  0  0  0  0  0  0  0  0  0  0  0
   -1.8306    0.1882    0.2367 N   0  0  0  0  0  0  0  0  0  0  0  0
   -1.7548    0.5877   -1.1686 C   0  0  0  0  0  0  0  0  0  0  0  0
   -1.9574    2.0574   -1.2847 C   0  0  0  0  0  0  0  0  0  0  0  0
   -1.1445    3.1567   -1.0893 C   0  0  0  0  0  0  0  0  0  0  0  0
   -1.9398    4.2963   -1.3628 C   0  0  0  0  0  0  0  0  0  0  0  0
   -3.1838    3.8228   -1.7048 C   0  0  0  0  0  0  0  0  0  0  0  0
   -3.2028    2.4666   -1.6659 O   0  0  0  0  0  0  0  0  0  0  0  0
   -3.1700    0.0206    0.7995 C   0  0  0  0  0  0  0  0  0  0  0  0
   -3.6614   -1.3506    0.4975 C   0  0  0  0  0  0  0  0  0  0  0  0
   -3.4487   -2.5803    1.0854 C   0  0  0  0  0  0  0  0  0  0  0  0
   -4.1909   -3.5190    0.3301 C   0  0  0  0  0  0  0  0  0  0  0  0
   -4.8143   -2.8057   -0.6699 C   0  0  0  0  0  0  0  0  0  0  0  0
   -5.7166   -3.1809   -1.7750 C   0  0  0  0  0  0  0  0  0  0  0  0
   -4.4920   -1.4854   -0.5762 O   0  0  0  0  0  0  0  0  0  0  0  0
    3.4005    0.1844   -0.3232 C   0  0  0  0  0  0  0  0  0  0  0  0
    4.7688    0.2965   -0.5983 C   0  0  0  0  0  0  0  0  0  0  0  0
    7.9961   -0.7745    1.4880 H   0  0  0  0  0  0  0  0  0  0  0  0
    8.9936    0.3196    0.5252 H   0  0  0  0  0  0  0  0  0  0  0  0
    7.9271    1.0106    1.7535 H   0  0  0  0  0  0  0  0  0  0  0  0
    5.9828   -0.1076    2.5581 H   0  0  0  0  0  0  0  0  0  0  0  0
    3.5909   -0.3035    3.0268 H   0  0  0  0  0  0  0  0  0  0  0  0
    0.7495    1.0160   -0.0152 H   0  0  0  0  0  0  0  0  0  0  0  0
    0.7460   -0.7644   -0.3406 H   0  0  0  0  0  0  0  0  0  0  0  0
   -2.5140    0.0407   -1.7392 H   0  0  0  0  0  0  0  0  0  0  0  0
   -0.7878    0.3195   -1.6007 H   0  0  0  0  0  0  0  0  0  0  0  0
   -0.1073    3.1459   -0.7834 H   0  0  0  0  0  0  0  0  0  0  0  0
   -1.6448    5.3350   -1.3111 H   0  0  0  0  0  0  0  0  0  0  0  0
   -4.1146    4.2955   -1.9870 H   0  0  0  0  0  0  0  0  0  0  0  0
   -3.8426    0.7799    0.3863 H   0  0  0  0  0  0  0  0  0  0  0  0
   -3.1492    0.1713    1.8848 H   0  0  0  0  0  0  0  0  0  0  0  0
   -2.8241   -2.7660    1.9493 H   0  0  0  0  0  0  0  0  0  0  0  0
   -4.2608   -4.5849    0.4943 H   0  0  0  0  0  0  0  0  0  0  0  0
   -5.1785   -3.1598   -2.7274 H   0  0  0  0  0  0  0  0  0  0  0  0
   -6.1174   -4.1893   -1.6298 H   0  0  0  0  0  0  0  0  0  0  0  0
   -6.5590   -2.4868   -1.8398 H   0  0  0  0  0  0  0  0  0  0  0  0
    2.7079    0.2651   -1.1537 H   0  0  0  0  0  0  0  0  0  0  0  0
    5.0988    0.4623   -1.6211 H   0  0  0  0  0  0  0  0  0  0  0  0
  1  2  1  0
  2  3  1  0
  3  4  2  0
  4  5  1  0
  5  6  2  0
  6  7  1  0
  7  8  1  0
  8  9  1  0
  9 10  2  0
  9 11  1  0
 11 12  1  0
 12 13  1  0
 13 14  2  0
 14 15  1  0
 15 16  2  0
 16 17  1  0
 11 18  1  0
 18 19  1  0
 19 20  2  0
 20 21  1  0
 21 22  2  0
 22 23  1  0
 22 24  1  0
  6 25  1  0
 25 26  2  0
 26  3  1  0
 17 13  1  0
 24 19  1  0
  1 27  1  0
  1 28  1  0
  1 29  1  0
  4 30  1  0
  5 31  1  0
  8 32  1  0
  8 33  1  0
 12 34  1  0
 12 35  1  0
 14 36  1  0
 15 37  1  0
 16 38  1  0
 18 39  1  0
 18 40  1  0
 20 41  1  0
 21 42  1  0
 23 43  1  0
 23 44  1  0
 23 45  1  0
 25 46  1  0
 26 47  1  0
M  END
$$$$
