
     RDKit          3D

 49 52  0  0  0  0  0  0  0  0999 V2000
   -1.8519    1.7542    0.0768 O   0  0  0  0  0  0  0  0  0  0  0  0
   -2.2236    0.6575    0.5035 C   0  0  0  0  0  0  0  0  0  0  0  0
   -1.2054   -0.4534    0.7968 C   0  0  0  0  0  0  0  0  0  0  0  0
    0.1486    0.0363    0.5837 N   0  0  0  0  0  0  0  0  0  0  0  0
    0.6989    0.0056   -0.6983 C   0  0  0  0  0  0  0  0  0  0  0  0
    1.8771    0.4439   -1.0374 N   0  0  0  0  0  0  0  0  0  0  0  0
    2.5415    0.9819    0.0131 C   0  0  0  0  0  0  0  0  0  0  0  0
    2.1203    1.1110    1.3136 C   0  0  0  0  0  0  0  0  0  0  0  0
    3.0791    1.7155    2.0692 N   0  0  0  0  0  0  0  0  0  0  0  0
    4.1087    1.9822    1.2658 N   0  0  0  0  0  0  0  0  0  0  0  0
    3.7903    1.5332    0.0262 N   0  0  0  0  0  0  0  0  0  0  0  0
    4.6983    1.7162   -1.0856 C   0  0  0  0  0  0  0  0  0  0  0  0
    5.5972    0.5170   -1.2673 C   0  0  0  0  0  0  0  0  0  0  0  0
    5.2599   -0.4941   -2.1807 C   0  0  0  0  0  0  0  0  0  0  0  0
    6.0859   -1.6095   -2.3387 C   0  0  0  0  0  0  0  0  0  0  0  0
    7.2493   -1.7233   -1.5804 C   0  0  0  0  0  0  0  0  0  0  0  0
    8.2649   -3.0987   -1.7752 Cl  0  0  0  0  0  0  0  0  0  0  0  0
    7.5928   -0.7330   -0.6626 C   0  0  0  0  0  0  0  0  0  0  0  0
    6.7680    0.3831   -0.5043 C   0  0  0  0  0  0  0  0  0  0  0  0
    0.8142    0.6212    1.6752 C   0  0  0  0  0  0  0  0  0  0  0  0
    0.3436    0.6885    2.8072 O   0  0  0  0  0  0  0  0  0  0  0  0
   -3.5782    0.3611    0.6817 N   0  0  0  0  0  0  0  0  0  0  0  0
   -4.5334    1.4234    0.3669 C   0  0  0  0  0  0  0  0  0  0  0  0
   -5.9676    0.9911    0.0662 C   0  0  0  0  0  0  0  0  0  0  0  0
   -6.0669   -0.0939   -1.0044 C   0  0  0  0  0  0  0  0  0  0  0  0
   -5.9236   -1.5072   -0.4417 C   0  0  0  0  0  0  0  0  0  0  0  0
   -4.5464   -1.8420    0.1267 C   0  0  0  0  0  0  0  0  0  0  0  0
   -4.0846   -0.8967    1.2323 C   0  0  0  0  0  0  0  0  0  0  0  0
   -1.3950   -1.2909    0.1178 H   0  0  0  0  0  0  0  0  0  0  0  0
   -1.3066   -0.7830    1.8340 H   0  0  0  0  0  0  0  0  0  0  0  0
    0.0425   -0.4462   -1.4601 H   0  0  0  0  0  0  0  0  0  0  0  0
    5.2896    2.6209   -0.9008 H   0  0  0  0  0  0  0  0  0  0  0  0
    4.1027    1.9040   -1.9864 H   0  0  0  0  0  0  0  0  0  0  0  0
    4.3466   -0.4225   -2.7697 H   0  0  0  0  0  0  0  0  0  0  0  0
    5.8143   -2.3855   -3.0496 H   0  0  0  0  0  0  0  0  0  0  0  0
    8.4955   -0.8249   -0.0640 H   0  0  0  0  0  0  0  0  0  0  0  0
    7.0393    1.1442    0.2266 H   0  0  0  0  0  0  0  0  0  0  0  0
   -4.1562    1.9954   -0.4900 H   0  0  0  0  0  0  0  0  0  0  0  0
   -4.5373    2.1094    1.2230 H   0  0  0  0  0  0  0  0  0  0  0  0
   -6.5123    1.8778   -0.2829 H   0  0  0  0  0  0  0  0  0  0  0  0
   -6.4748    0.6700    0.9841 H   0  0  0  0  0  0  0  0  0  0  0  0
   -5.3351    0.0777   -1.8022 H   0  0  0  0  0  0  0  0  0  0  0  0
   -7.0581   -0.0238   -1.4696 H   0  0  0  0  0  0  0  0  0  0  0  0
   -6.1483   -2.2244   -1.2411 H   0  0  0  0  0  0  0  0  0  0  0  0
   -6.6824   -1.6672    0.3346 H   0  0  0  0  0  0  0  0  0  0  0  0
   -4.5941   -2.8589    0.5355 H   0  0  0  0  0  0  0  0  0  0  0  0
   -3.8102   -1.8639   -0.6859 H   0  0  0  0  0  0  0  0  0  0  0  0
   -4.8806   -0.6831    1.9541 H   0  0  0  0  0  0  0  0  0  0  0  0
   -3.2964   -1.3961    1.8001 H   0  0  0  0  0  0  0  0  0  0  0  0
  1  2  2  0
  2  3  1  0
  3  4  1  0
  4  5  1  0
  5  6  2  0
  6  7  1  0
  7  8  2  0
  8  9  1  0
  9 10  2  0
 10 11  1  0
 11 12  1  0
 12 13  1  0
 13 14  2  0
 14 15  1  0
 15 16  2  0
 16 17  1  0
 16 18  1  0
 18 19  2  0
  8 20  1  0
 20 21  2  0
  2 22  1  0
 22 23  1  0
 23 24  1  0
 24 25  1  0
 25 26  1  0
 26 27  1  0
 27 28  1  0
 20  4  1  0
 28 22  1  0
 11  7  1  0
 19 13  1  0
  3 29  1  0
  3 30  1  0
  5 31  1  0
 12 32  1  0
 12 33  1  0
 14 34  1  0
 15 35  1  0
 18 36  1  0
 19 37  1  0
 23 38  1  0
 23 39  1  0
 24 40  1  0
 24 41  1  0
 25 42  1  0
 25 43  1  0
 26 44  1  0
 26 45  1  0
 27 46  1  0
 27 47  1  0
 28 48  1  0
 28 49  1  0
M  END
$$$$
