
     RDKit          3D

 38 40  0  0  0  0  0  0  0  0999 V2000
   -5.4966    0.2664   -1.5079 C   0  0  0  0  0  0  0  0  0  0  0  0
   -4.6177    0.5056   -0.3797 N   0  0  0  0  0  0  0  0  0  0  0  0
   -3.3469   -0.0063   -0.5015 N   0  0  0  0  0  0  0  0  0  0  0  0
   -2.4884    0.1560    0.4731 C   0  0  0  0  0  0  0  0  0  0  0  0
   -1.2175   -0.3679    0.3184 N   0  0  0  0  0  0  0  0  0  0  0  0
   -0.8506   -1.1931   -0.8322 C   0  0  0  0  0  0  0  0  0  0  0  0
    0.5113   -1.7804   -0.4710 C   0  0  0  0  0  0  0  0  0  0  0  0
    1.1108   -0.7485    0.4761 C   0  0  0  0  0  0  0  0  0  0  0  0
    1.6862    0.3662   -0.3295 N   0  0  0  0  0  0  0  0  0  0  0  0
    2.8269    1.3422    0.4518 S   0  0  0  0  0  6  0  0  0  0  0  0
    2.9869    2.5183   -0.3695 O   0  0  0  0  0  0  0  0  0  0  0  0
    2.4628    1.4015    1.8493 O   0  0  0  0  0  0  0  0  0  0  0  0
    4.3764    0.4864    0.3661 C   0  0  0  0  0  0  0  0  0  0  0  0
    4.8051   -0.5943   -0.3854 C   0  0  0  0  0  0  0  0  0  0  0  0
    6.1653   -0.9315   -0.1174 C   0  0  0  0  0  0  0  0  0  0  0  0
    6.7049   -0.0867    0.8178 C   0  0  0  0  0  0  0  0  0  0  0  0
    8.3074   -0.1311    1.4322 Cl  0  0  0  0  0  0  0  0  0  0  0  0
    5.6250    1.0911    1.3713 S   0  0  0  0  0  0  0  0  0  0  0  0
   -0.1206   -0.2885    1.2788 C   0  0  0  0  0  0  0  0  0  0  0  0
   -2.8667    0.8842    1.7132 C   0  0  0  0  0  0  0  0  0  0  0  0
   -4.1029    1.3693    1.8200 C   0  0  0  0  0  0  0  0  0  0  0  0
   -5.0788    1.1891    0.7322 C   0  0  0  0  0  0  0  0  0  0  0  0
   -6.2117    1.6426    0.8731 O   0  0  0  0  0  0  0  0  0  0  0  0
   -5.6498   -0.8122   -1.6088 H   0  0  0  0  0  0  0  0  0  0  0  0
   -6.4663    0.7537   -1.3772 H   0  0  0  0  0  0  0  0  0  0  0  0
   -5.0218    0.6541   -2.4142 H   0  0  0  0  0  0  0  0  0  0  0  0
   -0.7781   -0.5677   -1.7291 H   0  0  0  0  0  0  0  0  0  0  0  0
   -1.5763   -1.9926   -1.0156 H   0  0  0  0  0  0  0  0  0  0  0  0
    0.3695   -2.7292    0.0613 H   0  0  0  0  0  0  0  0  0  0  0  0
    1.1226   -1.9763   -1.3574 H   0  0  0  0  0  0  0  0  0  0  0  0
    1.8836   -1.1986    1.1068 H   0  0  0  0  0  0  0  0  0  0  0  0
    0.9741    0.9639   -0.7622 H   0  0  0  0  0  0  0  0  0  0  0  0
    4.1694   -1.1088   -1.0963 H   0  0  0  0  0  0  0  0  0  0  0  0
    6.7103   -1.7402   -0.5886 H   0  0  0  0  0  0  0  0  0  0  0  0
   -0.0032    0.7256    1.6696 H   0  0  0  0  0  0  0  0  0  0  0  0
   -0.3139   -0.9765    2.1094 H   0  0  0  0  0  0  0  0  0  0  0  0
   -2.1459    1.0076    2.5070 H   0  0  0  0  0  0  0  0  0  0  0  0
   -4.4448    1.9069    2.6940 H   0  0  0  0  0  0  0  0  0  0  0  0
  1  2  1  0
  2  3  1  0
  3  4  2  0
  4  5  1  0
  5  6  1  0
  6  7  1  0
  7  8  1  0
  8  9  1  0
  9 10  1  0
 10 11  2  0
 10 12  2  0
 10 13  1  0
 13 14  2  0
 14 15  1  0
 15 16  2  0
 16 17  1  0
 16 18  1  0
  8 19  1  0
  4 20  1  0
 20 21  2  0
 21 22  1  0
 22 23  2  0
 22  2  1  0
 19  5  1  0
 18 13  1  0
  1 24  1  0
  1 25  1  0
  1 26  1  0
  6 27  1  0
  6 28  1  0
  7 29  1  0
  7 30  1  0
  8 31  1  0
  9 32  1  0
 14 33  1  0
 15 34  1  0
 19 35  1  0
 19 36  1  0
 20 37  1  0
 21 38  1  0
M  END
$$$$
