
     RDKit          3D

 38 41  0  0  0  0  0  0  0  0999 V2000
   -0.2771    1.7396   -1.5478 O   0  0  0  0  0  0  0  0  0  0  0  0
    0.5811    1.1088   -0.9215 C   0  0  0  0  0  0  0  0  0  0  0  0
    1.8692    1.5236   -1.0515 N   0  0  0  0  0  0  0  0  0  0  0  0
    3.0987    1.0696   -0.5460 C   0  0  0  0  0  0  0  0  0  0  0  0
    4.1715    1.9532   -0.7911 C   0  0  0  0  0  0  0  0  0  0  0  0
    5.4651    1.6888   -0.3425 C   0  0  0  0  0  0  0  0  0  0  0  0
    5.7152    0.5260    0.3635 C   0  0  0  0  0  0  0  0  0  0  0  0
    4.6724   -0.3669    0.5993 C   0  0  0  0  0  0  0  0  0  0  0  0
    3.3539   -0.1281    0.1370 C   0  0  0  0  0  0  0  0  0  0  0  0
    2.3774   -1.2290    0.4593 C   0  0  0  0  0  0  0  0  0  0  0  0
    1.0844   -1.2748   -0.3338 C   0  0  0  0  0  0  0  0  0  0  0  0
    0.2269   -0.0600   -0.0108 C   0  0  0  0  0  0  0  0  0  0  0  0
   -1.2178   -0.3396   -0.1207 N   0  0  0  0  0  0  0  0  0  0  0  0
   -1.7360   -0.9486   -1.2413 C   0  0  0  0  0  0  0  0  0  0  0  0
   -2.9846   -1.2059   -1.4427 N   0  0  0  0  0  0  0  0  0  0  0  0
   -3.8984   -0.7998   -0.4624 C   0  0  0  0  0  0  0  0  0  0  0  0
   -5.2541   -1.0711   -0.6514 C   0  0  0  0  0  0  0  0  0  0  0  0
   -6.1827   -0.6666    0.3029 C   0  0  0  0  0  0  0  0  0  0  0  0
   -7.4816   -0.9325    0.1126 F   0  0  0  0  0  0  0  0  0  0  0  0
   -5.7869    0.0103    1.4523 C   0  0  0  0  0  0  0  0  0  0  0  0
   -4.4355    0.2873    1.6521 C   0  0  0  0  0  0  0  0  0  0  0  0
   -3.5002   -0.1215    0.6919 C   0  0  0  0  0  0  0  0  0  0  0  0
   -2.0598    0.1444    0.8719 C   0  0  0  0  0  0  0  0  0  0  0  0
   -1.6755    0.7486    1.8700 O   0  0  0  0  0  0  0  0  0  0  0  0
    1.9013    2.3660   -1.6168 H   0  0  0  0  0  0  0  0  0  0  0  0
    4.0084    2.8852   -1.3302 H   0  0  0  0  0  0  0  0  0  0  0  0
    6.2673    2.3950   -0.5393 H   0  0  0  0  0  0  0  0  0  0  0  0
    6.7158    0.3079    0.7274 H   0  0  0  0  0  0  0  0  0  0  0  0
    4.8967   -1.2798    1.1516 H   0  0  0  0  0  0  0  0  0  0  0  0
    2.8800   -2.1913    0.2891 H   0  0  0  0  0  0  0  0  0  0  0  0
    2.1510   -1.1834    1.5328 H   0  0  0  0  0  0  0  0  0  0  0  0
    0.5549   -2.1933   -0.0491 H   0  0  0  0  0  0  0  0  0  0  0  0
    1.2983   -1.3481   -1.4075 H   0  0  0  0  0  0  0  0  0  0  0  0
    0.4288    0.2772    1.0129 H   0  0  0  0  0  0  0  0  0  0  0  0
   -0.9949   -1.2319   -2.0043 H   0  0  0  0  0  0  0  0  0  0  0  0
   -5.5890   -1.5932   -1.5418 H   0  0  0  0  0  0  0  0  0  0  0  0
   -6.5314    0.3170    2.1805 H   0  0  0  0  0  0  0  0  0  0  0  0
   -4.1128    0.8168    2.5456 H   0  0  0  0  0  0  0  0  0  0  0  0
  1  2  2  0
  2  3  1  0
  3  4  1  0
  4  5  2  0
  5  6  1  0
  6  7  2  0
  7  8  1  0
  8  9  2  0
  9 10  1  0
 10 11  1  0
 11 12  1  0
 12 13  1  0
 13 14  1  0
 14 15  2  0
 15 16  1  0
 16 17  2  0
 17 18  1  0
 18 19  1  0
 18 20  2  0
 20 21  1  0
 21 22  2  0
 22 23  1  0
 23 24  2  0
 12  2  1  0
 23 13  1  0
  9  4  1  0
 22 16  1  0
  3 25  1  0
  5 26  1  0
  6 27  1  0
  7 28  1  0
  8 29  1  0
 10 30  1  0
 10 31  1  0
 11 32  1  0
 11 33  1  0
 12 34  1  0
 14 35  1  0
 17 36  1  0
 20 37  1  0
 21 38  1  0
M  END
$$$$
