
     RDKit          3D

 49 52  0  0  0  0  0  0  0  0999 V2000
   -4.4256   -0.3166    3.2219 C   0  0  0  0  0  0  0  0  0  0  0  0
   -4.5439   -0.0615    1.7486 C   0  0  0  0  0  0  0  0  0  0  0  0
   -5.7983   -0.0358    1.1373 C   0  0  0  0  0  0  0  0  0  0  0  0
   -5.9063    0.1682   -0.2383 C   0  0  0  0  0  0  0  0  0  0  0  0
   -4.7614    0.3481   -1.0289 C   0  0  0  0  0  0  0  0  0  0  0  0
   -4.9125    0.5584   -2.5098 C   0  0  0  0  0  0  0  0  0  0  0  0
   -3.4872    0.3174   -0.4290 C   0  0  0  0  0  0  0  0  0  0  0  0
   -2.3418    0.4646   -1.2307 N   0  0  0  0  0  0  0  0  0  0  0  0
   -1.4656    1.5980   -0.8589 C   0  0  0  0  0  0  0  0  0  0  0  0
   -0.0830    1.4686   -1.5187 C   0  0  0  0  0  0  0  0  0  0  0  0
    0.5912    0.2214   -1.1319 N   0  0  0  0  0  0  0  0  0  0  0  0
    1.9709    0.2269   -0.9476 C   0  0  0  0  0  0  0  0  0  0  0  0
    2.6465    1.2273   -1.1983 O   0  0  0  0  0  0  0  0  0  0  0  0
    2.6002   -1.0813   -0.4462 C   0  0  0  0  0  0  0  0  0  0  0  0
    3.9845   -0.8790   -0.0503 N   0  0  0  0  0  0  0  0  0  0  0  0
    4.9668   -1.2421   -0.9798 N   0  0  0  0  0  0  0  0  0  0  0  0
    6.2163   -1.0086   -0.7089 C   0  0  0  0  0  0  0  0  0  0  0  0
    6.6189   -0.4029    0.5348 C   0  0  0  0  0  0  0  0  0  0  0  0
    7.9222   -0.0792    1.0117 C   0  0  0  0  0  0  0  0  0  0  0  0
    7.8770    0.4929    2.2668 C   0  0  0  0  0  0  0  0  0  0  0  0
    6.2705    0.6300    2.8557 S   0  0  0  0  0  0  0  0  0  0  0  0
    5.6449   -0.0659    1.4416 C   0  0  0  0  0  0  0  0  0  0  0  0
    4.2398   -0.2861    1.2032 C   0  0  0  0  0  0  0  0  0  0  0  0
    3.3437   -0.0100    2.0003 O   0  0  0  0  0  0  0  0  0  0  0  0
   -0.2828   -0.9274   -0.8569 C   0  0  0  0  0  0  0  0  0  0  0  0
   -1.6640   -0.8147   -1.5268 C   0  0  0  0  0  0  0  0  0  0  0  0
   -3.3989    0.1002    0.9572 C   0  0  0  0  0  0  0  0  0  0  0  0
   -3.4655    0.0417    3.6097 H   0  0  0  0  0  0  0  0  0  0  0  0
   -5.2153    0.2106    3.7702 H   0  0  0  0  0  0  0  0  0  0  0  0
   -4.5060   -1.3900    3.4235 H   0  0  0  0  0  0  0  0  0  0  0  0
   -6.7010   -0.1757    1.7266 H   0  0  0  0  0  0  0  0  0  0  0  0
   -6.8936    0.1858   -0.6923 H   0  0  0  0  0  0  0  0  0  0  0  0
   -4.4151    1.4843   -2.8180 H   0  0  0  0  0  0  0  0  0  0  0  0
   -4.4846   -0.2875   -3.0579 H   0  0  0  0  0  0  0  0  0  0  0  0
   -5.9659    0.6440   -2.7961 H   0  0  0  0  0  0  0  0  0  0  0  0
   -1.3210    1.6575    0.2266 H   0  0  0  0  0  0  0  0  0  0  0  0
   -1.9370    2.5325   -1.1839 H   0  0  0  0  0  0  0  0  0  0  0  0
    0.5326    2.3349   -1.2562 H   0  0  0  0  0  0  0  0  0  0  0  0
   -0.1830    1.4492   -2.6104 H   0  0  0  0  0  0  0  0  0  0  0  0
    2.0413   -1.4507    0.4192 H   0  0  0  0  0  0  0  0  0  0  0  0
    2.5644   -1.8266   -1.2477 H   0  0  0  0  0  0  0  0  0  0  0  0
    6.9935   -1.2833   -1.4399 H   0  0  0  0  0  0  0  0  0  0  0  0
    8.8462   -0.2495    0.4720 H   0  0  0  0  0  0  0  0  0  0  0  0
    8.7038    0.8387    2.8707 H   0  0  0  0  0  0  0  0  0  0  0  0
   -0.3963   -0.9846    0.2319 H   0  0  0  0  0  0  0  0  0  0  0  0
    0.2104   -1.8465   -1.1890 H   0  0  0  0  0  0  0  0  0  0  0  0
   -2.2783   -1.6820   -1.2548 H   0  0  0  0  0  0  0  0  0  0  0  0
   -1.5293   -0.8626   -2.6140 H   0  0  0  0  0  0  0  0  0  0  0  0
   -2.4223    0.0489    1.4325 H   0  0  0  0  0  0  0  0  0  0  0  0
  1  2  1  0
  2  3  2  0
  3  4  1  0
  4  5  2  0
  5  6  1  0
  5  7  1  0
  7  8  1  0
  8  9  1  0
  9 10  1  0
 10 11  1  0
 11 12  1  0
 12 13  2  0
 12 14  1  0
 14 15  1  0
 15 16  1  0
 16 17  2  0
 17 18  1  0
 18 19  1  0
 19 20  2  0
 20 21  1  0
 21 22  1  0
 22 23  1  0
 23 24  2  0
 11 25  1  0
 25 26  1  0
  7 27  2  0
 27  2  1  0
 26  8  1  0
 23 15  1  0
 22 18  2  0
  1 28  1  0
  1 29  1  0
  1 30  1  0
  3 31  1  0
  4 32  1  0
  6 33  1  0
  6 34  1  0
  6 35  1  0
  9 36  1  0
  9 37  1  0
 10 38  1  0
 10 39  1  0
 14 40  1  0
 14 41  1  0
 17 42  1  0
 19 43  1  0
 20 44  1  0
 25 45  1  0
 25 46  1  0
 26 47  1  0
 26 48  1  0
 27 49  1  0
M  END
$$$$
