
     RDKit          3D

 32 33  0  0  0  0  0  0  0  0999 V2000
    4.3579   -1.6751   -1.5300 C   0  0  0  0  0  0  0  0  0  0  0  0
    3.6949   -2.1104   -0.2358 C   0  0  0  0  0  0  0  0  0  0  0  0
    2.4319   -1.4419   -0.0335 N   0  0  0  0  0  0  0  0  0  0  0  0
    2.3291   -0.1849    0.5199 C   0  0  0  0  0  0  0  0  0  0  0  0
    3.2821    0.4530    0.9533 O   0  0  0  0  0  0  0  0  0  0  0  0
    0.9618    0.3341    0.5381 C   0  0  0  0  0  0  0  0  0  0  0  0
   -0.0909   -0.3460    0.0418 N   0  0  0  0  0  0  0  0  0  0  0  0
   -1.1339    0.5062    0.2704 N   0  0  0  0  0  0  0  0  0  0  0  0
   -2.4560    0.1670   -0.1061 C   0  0  0  0  0  0  0  0  0  0  0  0
   -2.7099   -1.0696   -0.7257 C   0  0  0  0  0  0  0  0  0  0  0  0
   -4.0112   -1.4151   -1.1016 C   0  0  0  0  0  0  0  0  0  0  0  0
   -5.0650   -0.5345   -0.8639 C   0  0  0  0  0  0  0  0  0  0  0  0
   -4.8180    0.6924   -0.2499 C   0  0  0  0  0  0  0  0  0  0  0  0
   -3.5203    1.0403    0.1266 C   0  0  0  0  0  0  0  0  0  0  0  0
   -3.3504    2.2337    0.7121 F   0  0  0  0  0  0  0  0  0  0  0  0
   -0.8108    1.6785    0.8721 N   0  0  0  0  0  0  0  0  0  0  0  0
    0.5149    1.5706    1.0425 C   0  0  0  0  0  0  0  0  0  0  0  0
    1.3005    2.6630    1.6843 C   0  0  0  0  0  0  0  0  0  0  0  0
    0.4739    3.7645    2.0749 O   0  0  0  0  0  0  0  0  0  0  0  0
    3.7105   -1.8810   -2.3890 H   0  0  0  0  0  0  0  0  0  0  0  0
    4.5707   -0.6010   -1.5238 H   0  0  0  0  0  0  0  0  0  0  0  0
    5.3013   -2.2103   -1.6744 H   0  0  0  0  0  0  0  0  0  0  0  0
    4.3541   -1.8975    0.6124 H   0  0  0  0  0  0  0  0  0  0  0  0
    3.4949   -3.1861   -0.2561 H   0  0  0  0  0  0  0  0  0  0  0  0
    1.5758   -1.8349   -0.4145 H   0  0  0  0  0  0  0  0  0  0  0  0
   -1.9060   -1.7763   -0.9230 H   0  0  0  0  0  0  0  0  0  0  0  0
   -4.2017   -2.3732   -1.5805 H   0  0  0  0  0  0  0  0  0  0  0  0
   -6.0774   -0.8029   -1.1561 H   0  0  0  0  0  0  0  0  0  0  0  0
   -5.6310    1.3872   -0.0592 H   0  0  0  0  0  0  0  0  0  0  0  0
    2.0560    3.0456    0.9914 H   0  0  0  0  0  0  0  0  0  0  0  0
    1.8043    2.2926    2.5823 H   0  0  0  0  0  0  0  0  0  0  0  0
   -0.4324    3.5121    1.8012 H   0  0  0  0  0  0  0  0  0  0  0  0
  1  2  1  0
  2  3  1  0
  3  4  1  0
  4  5  2  0
  4  6  1  0
  6  7  2  0
  7  8  1  0
  8  9  1  0
  9 10  2  0
 10 11  1  0
 11 12  2  0
 12 13  1  0
 13 14  2  0
 14 15  1  0
  8 16  1  0
 16 17  2  0
 17 18  1  0
 18 19  1  0
 17  6  1  0
 14  9  1  0
  1 20  1  0
  1 21  1  0
  1 22  1  0
  2 23  1  0
  2 24  1  0
  3 25  1  0
 10 26  1  0
 11 27  1  0
 12 28  1  0
 13 29  1  0
 18 30  1  0
 18 31  1  0
 19 32  1  0
M  END
$$$$
