
     RDKit          3D

 60 63  0  0  0  0  0  0  0  0999 V2000
    3.2325   -3.3221    1.0640 O   0  0  0  0  0  0  0  0  0  0  0  0
    3.8654   -2.2685    1.0574 C   0  0  0  0  0  0  0  0  0  0  0  0
    5.2619   -2.1582    1.6696 C   0  0  0  0  0  0  0  0  0  0  0  0
    6.0313   -1.0517    1.0984 N   0  0  0  0  0  0  0  0  0  0  0  0
    5.8963    0.1968    1.7239 N   0  0  0  0  0  0  0  0  0  0  0  0
    6.5765    1.2140    1.2833 C   0  0  0  0  0  0  0  0  0  0  0  0
    7.4463    1.0975    0.1427 C   0  0  0  0  0  0  0  0  0  0  0  0
    8.2578    2.0847   -0.4864 C   0  0  0  0  0  0  0  0  0  0  0  0
    8.9434    1.5656   -1.5663 C   0  0  0  0  0  0  0  0  0  0  0  0
    8.6011   -0.0985   -1.8086 S   0  0  0  0  0  0  0  0  0  0  0  0
    7.5485   -0.1225   -0.4788 C   0  0  0  0  0  0  0  0  0  0  0  0
    6.8325   -1.2958   -0.0376 C   0  0  0  0  0  0  0  0  0  0  0  0
    6.8976   -2.3951   -0.5816 O   0  0  0  0  0  0  0  0  0  0  0  0
    3.3246   -1.0703    0.6371 N   0  0  0  0  0  0  0  0  0  0  0  0
    2.0523   -1.0055   -0.0537 C   0  0  0  0  0  0  0  0  0  0  0  0
    1.5424    0.4303   -0.1343 C   0  0  0  0  0  0  0  0  0  0  0  0
    0.2589    0.5588   -0.9652 C   0  0  0  0  0  0  0  0  0  0  0  0
   -0.8530   -0.2519   -0.4612 N   0  0  0  0  0  0  0  0  0  0  0  0
   -1.8895   -0.4213   -1.4994 C   0  0  0  0  0  0  0  0  0  0  0  0
   -3.2549   -0.8309   -0.9076 C   0  0  0  0  0  0  0  0  0  0  0  0
   -3.8519    0.2362   -0.0796 N   0  0  0  0  0  0  0  0  0  0  0  0
   -4.9452   -0.2292    0.8028 C   0  0  0  0  0  0  0  0  0  0  0  0
   -5.7755    0.9594    1.3357 C   0  0  0  0  0  0  0  0  0  0  0  0
   -6.4710    1.7544    0.2254 C   0  0  0  0  0  0  0  0  0  0  0  0
   -6.7271    0.9486   -1.0474 C   0  0  0  0  0  0  0  0  0  0  0  0
   -6.9986   -0.5235   -0.7694 C   0  0  0  0  0  0  0  0  0  0  0  0
   -5.9639   -1.1939    0.1438 C   0  0  0  0  0  0  0  0  0  0  0  0
   -2.7978    0.9908    0.6364 C   0  0  0  0  0  0  0  0  0  0  0  0
   -1.4424    0.2571    0.7924 C   0  0  0  0  0  0  0  0  0  0  0  0
    5.1615   -2.0020    2.7487 H   0  0  0  0  0  0  0  0  0  0  0  0
    5.7906   -3.1008    1.4953 H   0  0  0  0  0  0  0  0  0  0  0  0
    6.4819    2.1920    1.7820 H   0  0  0  0  0  0  0  0  0  0  0  0
    8.3419    3.1188   -0.1736 H   0  0  0  0  0  0  0  0  0  0  0  0
    9.6295    2.0775   -2.2280 H   0  0  0  0  0  0  0  0  0  0  0  0
    3.9649   -0.2833    0.5988 H   0  0  0  0  0  0  0  0  0  0  0  0
    2.2071   -1.4200   -1.0562 H   0  0  0  0  0  0  0  0  0  0  0  0
    1.3404   -1.6522    0.4704 H   0  0  0  0  0  0  0  0  0  0  0  0
    2.3132    1.0611   -0.5962 H   0  0  0  0  0  0  0  0  0  0  0  0
    1.3994    0.8284    0.8768 H   0  0  0  0  0  0  0  0  0  0  0  0
    0.5061    0.2407   -1.9871 H   0  0  0  0  0  0  0  0  0  0  0  0
   -0.0316    1.6153   -1.0298 H   0  0  0  0  0  0  0  0  0  0  0  0
   -2.0236    0.5035   -2.0778 H   0  0  0  0  0  0  0  0  0  0  0  0
   -1.5585   -1.1957   -2.2014 H   0  0  0  0  0  0  0  0  0  0  0  0
   -3.9278   -1.0556   -1.7430 H   0  0  0  0  0  0  0  0  0  0  0  0
   -3.1219   -1.7525   -0.3251 H   0  0  0  0  0  0  0  0  0  0  0  0
   -4.4996   -0.7637    1.6528 H   0  0  0  0  0  0  0  0  0  0  0  0
   -6.5457    0.5649    2.0134 H   0  0  0  0  0  0  0  0  0  0  0  0
   -5.1817    1.6417    1.9527 H   0  0  0  0  0  0  0  0  0  0  0  0
   -5.8693    2.6347   -0.0320 H   0  0  0  0  0  0  0  0  0  0  0  0
   -7.4210    2.1405    0.6148 H   0  0  0  0  0  0  0  0  0  0  0  0
   -5.8608    1.0339   -1.7145 H   0  0  0  0  0  0  0  0  0  0  0  0
   -7.5683    1.3875   -1.5968 H   0  0  0  0  0  0  0  0  0  0  0  0
   -7.0600   -1.0708   -1.7174 H   0  0  0  0  0  0  0  0  0  0  0  0
   -7.9882   -0.6157   -0.3033 H   0  0  0  0  0  0  0  0  0  0  0  0
   -6.5148   -1.7025    0.9481 H   0  0  0  0  0  0  0  0  0  0  0  0
   -5.4686   -2.0111   -0.3911 H   0  0  0  0  0  0  0  0  0  0  0  0
   -3.1186    1.3100    1.6332 H   0  0  0  0  0  0  0  0  0  0  0  0
   -2.6236    1.9157    0.0714 H   0  0  0  0  0  0  0  0  0  0  0  0
   -1.5996   -0.6081    1.4499 H   0  0  0  0  0  0  0  0  0  0  0  0
   -0.7516    0.9125    1.3339 H   0  0  0  0  0  0  0  0  0  0  0  0
  1  2  2  0
  2  3  1  0
  3  4  1  0
  4  5  1  0
  5  6  2  0
  6  7  1  0
  7  8  1  0
  8  9  2  0
  9 10  1  0
 10 11  1  0
 11 12  1  0
 12 13  2  0
  2 14  1  0
 14 15  1  0
 15 16  1  0
 16 17  1  0
 17 18  1  0
 18 19  1  0
 19 20  1  0
 20 21  1  0
 21 22  1  0
 22 23  1  0
 23 24  1  0
 24 25  1  0
 25 26  1  0
 26 27  1  0
 21 28  1  0
 28 29  1  0
 12  4  1  0
 29 18  1  0
 11  7  2  0
 27 22  1  0
  3 30  1  0
  3 31  1  0
  6 32  1  0
  8 33  1  0
  9 34  1  0
 14 35  1  0
 15 36  1  0
 15 37  1  0
 16 38  1  0
 16 39  1  0
 17 40  1  0
 17 41  1  0
 19 42  1  0
 19 43  1  0
 20 44  1  0
 20 45  1  0
 22 46  1  0
 23 47  1  0
 23 48  1  0
 24 49  1  0
 24 50  1  0
 25 51  1  0
 25 52  1  0
 26 53  1  0
 26 54  1  0
 27 55  1  0
 27 56  1  0
 28 57  1  0
 28 58  1  0
 29 59  1  0
 29 60  1  0
M  END
$$$$
