
     RDKit          3D

 42 44  0  0  0  0  0  0  0  0999 V2000
   -2.4637   -2.2874    2.3001 C   0  0  0  0  0  0  0  0  0  0  0  0
   -1.3490   -2.1250    1.2748 C   0  0  0  0  0  0  0  0  0  0  0  0
   -1.1389   -0.7178    0.8907 N   0  0  0  0  0  0  0  0  0  0  0  0
   -0.5000    0.1413    1.8959 C   0  0  0  0  0  0  0  0  0  0  0  0
    0.3164    1.2313    1.2367 C   0  0  0  0  0  0  0  0  0  0  0  0
   -0.0435    2.5204    1.3446 C   0  0  0  0  0  0  0  0  0  0  0  0
    0.6997    3.6310    0.7366 C   0  0  0  0  0  0  0  0  0  0  0  0
    0.3167    4.7874    0.8754 O   0  0  0  0  0  0  0  0  0  0  0  0
    1.8410    3.3086    0.0277 O   0  0  0  0  0  0  0  0  0  0  0  0
    2.2615    1.9713   -0.0915 C   0  0  0  0  0  0  0  0  0  0  0  0
    3.4359    1.7612   -0.8151 C   0  0  0  0  0  0  0  0  0  0  0  0
    3.9233    0.4650   -0.9750 C   0  0  0  0  0  0  0  0  0  0  0  0
    3.2326   -0.6081   -0.4133 C   0  0  0  0  0  0  0  0  0  0  0  0
    3.5965   -1.9253   -0.4913 O   0  0  0  0  0  0  0  0  0  0  0  0
    4.7590   -2.2279   -1.2527 C   0  0  0  0  0  0  0  0  0  0  0  0
    2.0538   -0.3720    0.3103 C   0  0  0  0  0  0  0  0  0  0  0  0
    1.5458    0.9221    0.4857 C   0  0  0  0  0  0  0  0  0  0  0  0
   -2.1171   -0.1972    0.0352 C   0  0  0  0  0  0  0  0  0  0  0  0
   -2.2330   -0.7101   -1.2672 C   0  0  0  0  0  0  0  0  0  0  0  0
   -3.1883   -0.2246   -2.1648 C   0  0  0  0  0  0  0  0  0  0  0  0
   -4.0553    0.7894   -1.7737 C   0  0  0  0  0  0  0  0  0  0  0  0
   -3.9638    1.3131   -0.4881 C   0  0  0  0  0  0  0  0  0  0  0  0
   -3.0039    0.8231    0.4050 C   0  0  0  0  0  0  0  0  0  0  0  0
   -3.4278   -1.9569    1.9009 H   0  0  0  0  0  0  0  0  0  0  0  0
   -2.2590   -1.7108    3.2077 H   0  0  0  0  0  0  0  0  0  0  0  0
   -2.5616   -3.3399    2.5844 H   0  0  0  0  0  0  0  0  0  0  0  0
   -1.5620   -2.7500    0.3994 H   0  0  0  0  0  0  0  0  0  0  0  0
   -0.4183   -2.5224    1.6979 H   0  0  0  0  0  0  0  0  0  0  0  0
   -1.2459    0.5526    2.5874 H   0  0  0  0  0  0  0  0  0  0  0  0
    0.1717   -0.4520    2.5309 H   0  0  0  0  0  0  0  0  0  0  0  0
   -0.9315    2.8232    1.8868 H   0  0  0  0  0  0  0  0  0  0  0  0
    3.9661    2.6035   -1.2509 H   0  0  0  0  0  0  0  0  0  0  0  0
    4.8383    0.3282   -1.5410 H   0  0  0  0  0  0  0  0  0  0  0  0
    5.6499   -1.7701   -0.8102 H   0  0  0  0  0  0  0  0  0  0  0  0
    4.6364   -1.9267   -2.2984 H   0  0  0  0  0  0  0  0  0  0  0  0
    4.8981   -3.3131   -1.2331 H   0  0  0  0  0  0  0  0  0  0  0  0
    1.5360   -1.2329    0.7230 H   0  0  0  0  0  0  0  0  0  0  0  0
   -1.5462   -1.4838   -1.6026 H   0  0  0  0  0  0  0  0  0  0  0  0
   -3.2450   -0.6352   -3.1690 H   0  0  0  0  0  0  0  0  0  0  0  0
   -4.7979    1.1719   -2.4684 H   0  0  0  0  0  0  0  0  0  0  0  0
   -4.6411    2.1030   -0.1743 H   0  0  0  0  0  0  0  0  0  0  0  0
   -2.9857    1.2417    1.4054 H   0  0  0  0  0  0  0  0  0  0  0  0
  1  2  1  0
  2  3  1  0
  3  4  1  0
  4  5  1  0
  5  6  2  0
  6  7  1  0
  7  8  2  0
  7  9  1  0
  9 10  1  0
 10 11  2  0
 11 12  1  0
 12 13  2  0
 13 14  1  0
 14 15  1  0
 13 16  1  0
 16 17  2  0
  3 18  1  0
 18 19  2  0
 19 20  1  0
 20 21  2  0
 21 22  1  0
 22 23  2  0
 17  5  1  0
 23 18  1  0
 17 10  1  0
  1 24  1  0
  1 25  1  0
  1 26  1  0
  2 27  1  0
  2 28  1  0
  4 29  1  0
  4 30  1  0
  6 31  1  0
 11 32  1  0
 12 33  1  0
 15 34  1  0
 15 35  1  0
 15 36  1  0
 16 37  1  0
 19 38  1  0
 20 39  1  0
 21 40  1  0
 22 41  1  0
 23 42  1  0
M  END
$$$$
