
     RDKit          3D

 41 44  0  0  0  0  0  0  0  0999 V2000
   -7.5977   -1.7570    0.6569 C   0  0  0  0  0  0  0  0  0  0  0  0
   -6.1704   -1.3309    0.6286 C   0  0  0  0  0  0  0  0  0  0  0  0
   -5.1791   -2.1357    0.4143 N   0  0  0  0  0  0  0  0  0  0  0  0
   -4.0078   -1.4127    0.4566 N   0  0  0  0  0  0  0  0  0  0  0  0
   -2.7778   -2.0013    0.2674 C   0  0  0  0  0  0  0  0  0  0  0  0
   -2.5538   -3.1880    0.0518 O   0  0  0  0  0  0  0  0  0  0  0  0
   -1.6487   -1.0470    0.3504 C   0  0  0  0  0  0  0  0  0  0  0  0
   -1.8822    0.2536    0.6034 C   0  0  0  0  0  0  0  0  0  0  0  0
   -0.7626    1.2807    0.6976 C   0  0  0  0  0  0  0  0  0  0  0  0
    0.5028    0.7862    0.2463 O   0  0  0  0  0  0  0  0  0  0  0  0
    0.8382    0.9819   -1.0760 C   0  0  0  0  0  0  0  0  0  0  0  0
   -0.0643    1.3310   -2.0855 C   0  0  0  0  0  0  0  0  0  0  0  0
    0.3817    1.4873   -3.3986 C   0  0  0  0  0  0  0  0  0  0  0  0
    1.7242    1.2896   -3.7085 C   0  0  0  0  0  0  0  0  0  0  0  0
    2.6309    0.9292   -2.7093 C   0  0  0  0  0  0  0  0  0  0  0  0
    2.1990    0.7689   -1.3915 C   0  0  0  0  0  0  0  0  0  0  0  0
    3.0482    0.3993   -0.3231 N   0  0  0  0  0  0  0  0  0  0  0  0
    4.4103    0.1494   -0.3447 C   0  0  0  0  0  0  0  0  0  0  0  0
    5.1089    0.2324   -1.3508 O   0  0  0  0  0  0  0  0  0  0  0  0
    4.9616   -0.2241    0.9535 C   0  0  0  0  0  0  0  0  0  0  0  0
    4.4095   -0.4208    2.2105 C   0  0  0  0  0  0  0  0  0  0  0  0
    5.4707   -0.7781    3.0799 C   0  0  0  0  0  0  0  0  0  0  0  0
    6.6076   -0.7808    2.3111 C   0  0  0  0  0  0  0  0  0  0  0  0
    6.3138   -0.4493    1.0304 O   0  0  0  0  0  0  0  0  0  0  0  0
   -3.1504    0.7725    0.7873 N   0  0  0  0  0  0  0  0  0  0  0  0
   -4.1227   -0.0719    0.7050 C   0  0  0  0  0  0  0  0  0  0  0  0
   -5.7925    0.3526    0.8995 S   0  0  0  0  0  0  0  0  0  0  0  0
   -8.1607   -1.2239   -0.1145 H   0  0  0  0  0  0  0  0  0  0  0  0
   -8.0326   -1.5361    1.6358 H   0  0  0  0  0  0  0  0  0  0  0  0
   -7.6741   -2.8319    0.4708 H   0  0  0  0  0  0  0  0  0  0  0  0
   -0.6607   -1.4638    0.2010 H   0  0  0  0  0  0  0  0  0  0  0  0
   -1.0288    2.2220    0.2008 H   0  0  0  0  0  0  0  0  0  0  0  0
   -0.6328    1.5321    1.7575 H   0  0  0  0  0  0  0  0  0  0  0  0
   -1.1219    1.4779   -1.8931 H   0  0  0  0  0  0  0  0  0  0  0  0
   -0.3202    1.7593   -4.1834 H   0  0  0  0  0  0  0  0  0  0  0  0
    2.0716    1.4097   -4.7321 H   0  0  0  0  0  0  0  0  0  0  0  0
    3.6666    0.7783   -2.9966 H   0  0  0  0  0  0  0  0  0  0  0  0
    2.5638    0.3244    0.5615 H   0  0  0  0  0  0  0  0  0  0  0  0
    3.3685   -0.3256    2.4831 H   0  0  0  0  0  0  0  0  0  0  0  0
    5.4140   -1.0071    4.1349 H   0  0  0  0  0  0  0  0  0  0  0  0
    7.6501   -0.9867    2.5117 H   0  0  0  0  0  0  0  0  0  0  0  0
  1  2  1  0
  2  3  2  0
  3  4  1  0
  4  5  1  0
  5  6  2  0
  5  7  1  0
  7  8  2  0
  8  9  1  0
  9 10  1  0
 10 11  1  0
 11 12  2  0
 12 13  1  0
 13 14  2  0
 14 15  1  0
 15 16  2  0
 16 17  1  0
 17 18  1  0
 18 19  2  0
 18 20  1  0
 20 21  2  0
 21 22  1  0
 22 23  2  0
 23 24  1  0
  8 25  1  0
 25 26  2  0
 26 27  1  0
 27  2  1  0
 26  4  1  0
 16 11  1  0
 24 20  1  0
  1 28  1  0
  1 29  1  0
  1 30  1  0
  7 31  1  0
  9 32  1  0
  9 33  1  0
 12 34  1  0
 13 35  1  0
 14 36  1  0
 15 37  1  0
 17 38  1  0
 21 39  1  0
 22 40  1  0
 23 41  1  0
M  END
$$$$
