
     RDKit          3D

 34 37  0  0  0  0  0  0  0  0999 V2000
   -6.5183    0.1700    0.0671 C   0  0  0  0  0  0  0  0  0  0  0  0
   -5.0428   -0.0965   -0.0248 C   0  0  0  0  0  0  0  0  0  0  0  0
   -4.5609   -1.4064    0.0360 C   0  0  0  0  0  0  0  0  0  0  0  0
   -3.1870   -1.6698   -0.0182 C   0  0  0  0  0  0  0  0  0  0  0  0
   -2.2740   -0.6030   -0.1246 C   0  0  0  0  0  0  0  0  0  0  0  0
   -0.8954   -0.7147   -0.1887 N   0  0  0  0  0  0  0  0  0  0  0  0
   -0.3324    0.4810   -0.2788 C   0  0  0  0  0  0  0  0  0  0  0  0
    1.0598    0.6631   -0.3529 N   0  0  0  0  0  0  0  0  0  0  0  0
    1.6590    1.9253   -0.3874 C   0  0  0  0  0  0  0  0  0  0  0  0
    1.0963    3.0123   -0.5373 O   0  0  0  0  0  0  0  0  0  0  0  0
    3.0178    1.9901   -0.2200 N   0  0  0  0  0  0  0  0  0  0  0  0
    3.8338    0.8840   -0.0405 C   0  0  0  0  0  0  0  0  0  0  0  0
    5.2092    1.0535    0.1344 C   0  0  0  0  0  0  0  0  0  0  0  0
    6.0280   -0.0661    0.2715 C   0  0  0  0  0  0  0  0  0  0  0  0
    5.4705   -1.3420    0.2262 C   0  0  0  0  0  0  0  0  0  0  0  0
    4.0925   -1.4958    0.0489 C   0  0  0  0  0  0  0  0  0  0  0  0
    3.2526   -0.3793   -0.0793 C   0  0  0  0  0  0  0  0  0  0  0  0
    1.8573   -0.5318   -0.2521 N   0  0  0  0  0  0  0  0  0  0  0  0
    1.4205   -1.6758   -0.9343 O   0  0  0  0  0  0  0  0  0  0  0  0
   -1.4428    1.7832   -0.2889 S   0  0  0  0  0  0  0  0  0  0  0  0
   -2.7659    0.6981   -0.1691 C   0  0  0  0  0  0  0  0  0  0  0  0
   -4.1423    0.9767   -0.1152 C   0  0  0  0  0  0  0  0  0  0  0  0
   -6.7852    1.0817   -0.4778 H   0  0  0  0  0  0  0  0  0  0  0  0
   -7.0918   -0.6515   -0.3750 H   0  0  0  0  0  0  0  0  0  0  0  0
   -6.8127    0.2843    1.1148 H   0  0  0  0  0  0  0  0  0  0  0  0
   -5.2530   -2.2418    0.1253 H   0  0  0  0  0  0  0  0  0  0  0  0
   -2.8205   -2.6907    0.0243 H   0  0  0  0  0  0  0  0  0  0  0  0
    3.4076    2.9220   -0.2326 H   0  0  0  0  0  0  0  0  0  0  0  0
    5.6515    2.0451    0.1586 H   0  0  0  0  0  0  0  0  0  0  0  0
    7.0999    0.0549    0.4068 H   0  0  0  0  0  0  0  0  0  0  0  0
    6.1046   -2.2194    0.3266 H   0  0  0  0  0  0  0  0  0  0  0  0
    3.6689   -2.4969    0.0156 H   0  0  0  0  0  0  0  0  0  0  0  0
    0.4912   -1.7476   -0.6315 H   0  0  0  0  0  0  0  0  0  0  0  0
   -4.4959    2.0038   -0.1453 H   0  0  0  0  0  0  0  0  0  0  0  0
  1  2  1  0
  2  3  2  0
  3  4  1  0
  4  5  2  0
  5  6  1  0
  6  7  2  0
  7  8  1  0
  8  9  1  0
  9 10  2  0
  9 11  1  0
 11 12  1  0
 12 13  2  0
 13 14  1  0
 14 15  2  0
 15 16  1  0
 16 17  2  0
 17 18  1  0
 18 19  1  0
  7 20  1  0
 20 21  1  0
 21 22  2  0
 22  2  1  0
 21  5  1  0
 18  8  1  0
 17 12  1  0
  1 23  1  0
  1 24  1  0
  1 25  1  0
  3 26  1  0
  4 27  1  0
 11 28  1  0
 13 29  1  0
 14 30  1  0
 15 31  1  0
 16 32  1  0
 19 33  1  0
 22 34  1  0
M  END
$$$$
