
     RDKit          3D

 49 50  0  0  0  0  0  0  0  0999 V2000
    6.2289    2.1433   -2.3330 C   0  0  0  0  0  0  0  0  0  0  0  0
    5.8710    2.2729   -0.9644 O   0  0  0  0  0  0  0  0  0  0  0  0
    5.8354    1.0290   -0.2663 C   0  0  0  0  0  0  0  0  0  0  0  0
    4.5220    0.2923   -0.5095 C   0  0  0  0  0  0  0  0  0  0  0  0
    4.4589   -0.9988    0.2979 C   0  0  0  0  0  0  0  0  0  0  0  0
    3.2227   -1.7165    0.0575 N   0  0  0  0  0  0  0  0  0  0  0  0
    2.0742   -1.4413    0.7698 C   0  0  0  0  0  0  0  0  0  0  0  0
    2.0199   -0.6064    1.6632 O   0  0  0  0  0  0  0  0  0  0  0  0
    0.8832   -2.2534    0.2996 C   0  0  0  0  0  0  0  0  0  0  0  0
   -0.3527   -2.1353    1.1912 C   0  0  0  0  0  0  0  0  0  0  0  0
   -0.9309   -0.7135    1.2605 C   0  0  0  0  0  0  0  0  0  0  0  0
   -2.3772   -0.6924    1.5283 N   0  0  0  0  0  0  0  0  0  0  0  0
   -2.7560   -1.0115    2.8435 C   0  0  0  0  0  0  0  0  0  0  0  0
   -1.9721   -1.4823    3.6714 O   0  0  0  0  0  0  0  0  0  0  0  0
   -4.2132   -0.8423    3.2023 C   0  0  0  0  0  0  0  0  0  0  0  0
   -4.7310    0.8398    2.8496 S   0  0  0  0  0  0  0  0  0  0  0  0
   -4.3252    0.7897    1.1193 C   0  0  0  0  0  0  0  0  0  0  0  0
   -5.1419    1.5551    0.3551 N   0  0  0  0  0  0  0  0  0  0  0  0
   -4.9382    1.5644   -0.9732 C   0  0  0  0  0  0  0  0  0  0  0  0
   -5.8329    2.4330   -1.8039 C   0  0  0  0  0  0  0  0  0  0  0  0
   -3.9627    0.7815   -1.5715 C   0  0  0  0  0  0  0  0  0  0  0  0
   -3.1308   -0.0371   -0.7836 C   0  0  0  0  0  0  0  0  0  0  0  0
   -2.2045   -0.9523   -1.5358 C   0  0  0  0  0  0  0  0  0  0  0  0
   -3.2606    0.0073    0.6216 C   0  0  0  0  0  0  0  0  0  0  0  0
    7.2151    1.6790   -2.4312 H   0  0  0  0  0  0  0  0  0  0  0  0
    6.2729    3.1442   -2.7711 H   0  0  0  0  0  0  0  0  0  0  0  0
    5.4828    1.5622   -2.8812 H   0  0  0  0  0  0  0  0  0  0  0  0
    6.7010    0.4130   -0.5393 H   0  0  0  0  0  0  0  0  0  0  0  0
    5.9273    1.2634    0.8001 H   0  0  0  0  0  0  0  0  0  0  0  0
    3.6816    0.9499   -0.2531 H   0  0  0  0  0  0  0  0  0  0  0  0
    4.4014    0.0675   -1.5756 H   0  0  0  0  0  0  0  0  0  0  0  0
    5.2773   -1.6691    0.0150 H   0  0  0  0  0  0  0  0  0  0  0  0
    4.5469   -0.7858    1.3688 H   0  0  0  0  0  0  0  0  0  0  0  0
    3.1797   -2.3582   -0.7237 H   0  0  0  0  0  0  0  0  0  0  0  0
    1.1853   -3.3068    0.2621 H   0  0  0  0  0  0  0  0  0  0  0  0
    0.6412   -1.9408   -0.7225 H   0  0  0  0  0  0  0  0  0  0  0  0
   -0.1011   -2.4766    2.2026 H   0  0  0  0  0  0  0  0  0  0  0  0
   -1.1115   -2.8310    0.8141 H   0  0  0  0  0  0  0  0  0  0  0  0
   -0.6918   -0.1295    0.3693 H   0  0  0  0  0  0  0  0  0  0  0  0
   -0.4487   -0.1756    2.0873 H   0  0  0  0  0  0  0  0  0  0  0  0
   -4.3421   -1.0309    4.2723 H   0  0  0  0  0  0  0  0  0  0  0  0
   -4.8152   -1.5725    2.6525 H   0  0  0  0  0  0  0  0  0  0  0  0
   -6.4203    1.8199   -2.4946 H   0  0  0  0  0  0  0  0  0  0  0  0
   -6.5275    2.9954   -1.1717 H   0  0  0  0  0  0  0  0  0  0  0  0
   -5.2378    3.1510   -2.3772 H   0  0  0  0  0  0  0  0  0  0  0  0
   -3.8648    0.7877   -2.6548 H   0  0  0  0  0  0  0  0  0  0  0  0
   -1.2311   -0.4803   -1.6940 H   0  0  0  0  0  0  0  0  0  0  0  0
   -2.0900   -1.9084   -1.0214 H   0  0  0  0  0  0  0  0  0  0  0  0
   -2.6169   -1.1978   -2.5220 H   0  0  0  0  0  0  0  0  0  0  0  0
  1  2  1  0
  2  3  1  0
  3  4  1  0
  4  5  1  0
  5  6  1  0
  6  7  1  0
  7  8  2  0
  7  9  1  0
  9 10  1  0
 10 11  1  0
 11 12  1  0
 12 13  1  0
 13 14  2  0
 13 15  1  0
 15 16  1  0
 16 17  1  0
 17 18  2  0
 18 19  1  0
 19 20  1  0
 19 21  2  0
 21 22  1  0
 22 23  1  0
 22 24  2  0
 24 12  1  0
 24 17  1  0
  1 25  1  0
  1 26  1  0
  1 27  1  0
  3 28  1  0
  3 29  1  0
  4 30  1  0
  4 31  1  0
  5 32  1  0
  5 33  1  0
  6 34  1  0
  9 35  1  0
  9 36  1  0
 10 37  1  0
 10 38  1  0
 11 39  1  0
 11 40  1  0
 15 41  1  0
 15 42  1  0
 20 43  1  0
 20 44  1  0
 20 45  1  0
 21 46  1  0
 23 47  1  0
 23 48  1  0
 23 49  1  0
M  END
$$$$
