
     RDKit          3D

 42 44  0  0  0  0  0  0  0  0999 V2000
   -4.7499    1.7905   -1.3286 C   0  0  0  0  0  0  0  0  0  0  0  0
   -4.8788    0.3160   -0.9900 C   0  0  0  0  0  0  0  0  0  0  0  0
   -3.5926   -0.1492   -0.5838 O   0  0  0  0  0  0  0  0  0  0  0  0
   -3.5063   -1.4432   -0.1243 C   0  0  0  0  0  0  0  0  0  0  0  0
   -4.5330   -2.3882   -0.1964 C   0  0  0  0  0  0  0  0  0  0  0  0
   -4.3307   -3.6778    0.2984 C   0  0  0  0  0  0  0  0  0  0  0  0
   -3.1054   -4.0272    0.8621 C   0  0  0  0  0  0  0  0  0  0  0  0
   -2.0725   -3.0905    0.9353 C   0  0  0  0  0  0  0  0  0  0  0  0
   -2.2641   -1.7974    0.4466 C   0  0  0  0  0  0  0  0  0  0  0  0
   -1.2713   -0.7941    0.4833 N   0  0  0  0  0  0  0  0  0  0  0  0
   -0.0342   -0.8461    1.0855 C   0  0  0  0  0  0  0  0  0  0  0  0
    0.4425   -1.7586    1.7467 O   0  0  0  0  0  0  0  0  0  0  0  0
    0.8020    0.4064    0.8818 C   0  0  0  0  0  0  0  0  0  0  0  0
    2.0459    0.2355    0.5237 N   0  0  0  0  0  0  0  0  0  0  0  0
    2.8471    1.3449    0.3666 N   0  0  0  0  0  0  0  0  0  0  0  0
    4.1714    1.0637   -0.1128 C   0  0  0  0  0  0  0  0  0  0  0  0
    4.6961   -0.2432   -0.0459 C   0  0  0  0  0  0  0  0  0  0  0  0
    5.9805   -0.5455   -0.5111 C   0  0  0  0  0  0  0  0  0  0  0  0
    6.7754    0.4546   -1.0595 C   0  0  0  0  0  0  0  0  0  0  0  0
    6.2835    1.7530   -1.1463 C   0  0  0  0  0  0  0  0  0  0  0  0
    4.9959    2.0524   -0.6825 C   0  0  0  0  0  0  0  0  0  0  0  0
    2.4022    2.6128    0.6974 C   0  0  0  0  0  0  0  0  0  0  0  0
    1.1551    2.9167    1.0602 C   0  0  0  0  0  0  0  0  0  0  0  0
    0.2237    1.7863    1.0780 C   0  0  0  0  0  0  0  0  0  0  0  0
   -0.9810    1.9448    1.2129 O   0  0  0  0  0  0  0  0  0  0  0  0
   -4.0133    1.9392   -2.1244 H   0  0  0  0  0  0  0  0  0  0  0  0
   -5.7088    2.2024   -1.6534 H   0  0  0  0  0  0  0  0  0  0  0  0
   -4.3956    2.3553   -0.4589 H   0  0  0  0  0  0  0  0  0  0  0  0
   -5.6050    0.1979   -0.1775 H   0  0  0  0  0  0  0  0  0  0  0  0
   -5.2146   -0.2284   -1.8803 H   0  0  0  0  0  0  0  0  0  0  0  0
   -5.4979   -2.1561   -0.6344 H   0  0  0  0  0  0  0  0  0  0  0  0
   -5.1299   -4.4128    0.2426 H   0  0  0  0  0  0  0  0  0  0  0  0
   -2.9480   -5.0324    1.2457 H   0  0  0  0  0  0  0  0  0  0  0  0
   -1.1286   -3.4018    1.3730 H   0  0  0  0  0  0  0  0  0  0  0  0
   -1.5846    0.0987    0.1026 H   0  0  0  0  0  0  0  0  0  0  0  0
    4.1017   -1.0487    0.3808 H   0  0  0  0  0  0  0  0  0  0  0  0
    6.3502   -1.5651   -0.4483 H   0  0  0  0  0  0  0  0  0  0  0  0
    7.7729    0.2211   -1.4232 H   0  0  0  0  0  0  0  0  0  0  0  0
    6.8964    2.5366   -1.5842 H   0  0  0  0  0  0  0  0  0  0  0  0
    4.6479    3.0724   -0.8054 H   0  0  0  0  0  0  0  0  0  0  0  0
    3.1497    3.3975    0.6707 H   0  0  0  0  0  0  0  0  0  0  0  0
    0.8059    3.9074    1.3079 H   0  0  0  0  0  0  0  0  0  0  0  0
  1  2  1  0
  2  3  1  0
  3  4  1  0
  4  5  2  0
  5  6  1  0
  6  7  2  0
  7  8  1  0
  8  9  2  0
  9 10  1  0
 10 11  1  0
 11 12  2  0
 11 13  1  0
 13 14  2  0
 14 15  1  0
 15 16  1  0
 16 17  2  0
 17 18  1  0
 18 19  2  0
 19 20  1  0
 20 21  2  0
 15 22  1  0
 22 23  2  0
 23 24  1  0
 24 25  2  0
  9  4  1  0
 24 13  1  0
 21 16  1  0
  1 26  1  0
  1 27  1  0
  1 28  1  0
  2 29  1  0
  2 30  1  0
  5 31  1  0
  6 32  1  0
  7 33  1  0
  8 34  1  0
 10 35  1  0
 17 36  1  0
 18 37  1  0
 19 38  1  0
 20 39  1  0
 21 40  1  0
 22 41  1  0
 23 42  1  0
M  END
$$$$
