
     RDKit          3D

 51 53  0  0  0  0  0  0  0  0999 V2000
    7.3603    1.9063    1.5406 C   0  0  0  0  0  0  0  0  0  0  0  0
    6.1197    1.2730    1.8246 O   0  0  0  0  0  0  0  0  0  0  0  0
    5.5571    0.6773    0.6529 C   0  0  0  0  0  0  0  0  0  0  0  0
    4.2703   -0.0551    1.0340 C   0  0  0  0  0  0  0  0  0  0  0  0
    3.4994   -0.4880   -0.1121 N   0  0  0  0  0  0  0  0  0  0  0  0
    3.8738   -1.5469   -0.9093 C   0  0  0  0  0  0  0  0  0  0  0  0
    4.9165   -2.1738   -0.7314 O   0  0  0  0  0  0  0  0  0  0  0  0
    2.9719   -1.7997   -2.1188 C   0  0  0  0  0  0  0  0  0  0  0  0
    1.6423   -1.2149   -1.9571 N   0  0  0  0  0  0  0  0  0  0  0  0
    1.5029    0.1306   -2.3492 N   0  0  0  0  0  0  0  0  0  0  0  0
    0.3456    0.7173   -2.2433 C   0  0  0  0  0  0  0  0  0  0  0  0
   -0.7786    0.0138   -1.6965 C   0  0  0  0  0  0  0  0  0  0  0  0
   -2.0822    0.4193   -1.4938 C   0  0  0  0  0  0  0  0  0  0  0  0
   -2.7289    1.7233   -1.8085 C   0  0  0  0  0  0  0  0  0  0  0  0
   -2.7413   -0.6449   -0.8878 N   0  0  0  0  0  0  0  0  0  0  0  0
   -4.1576   -0.6566   -0.4995 C   0  0  0  0  0  0  0  0  0  0  0  0
   -4.4785    0.2882    0.6286 C   0  0  0  0  0  0  0  0  0  0  0  0
   -5.4031    1.3298    0.4482 C   0  0  0  0  0  0  0  0  0  0  0  0
   -5.7092    2.1999    1.4984 C   0  0  0  0  0  0  0  0  0  0  0  0
   -5.1049    2.0354    2.7438 C   0  0  0  0  0  0  0  0  0  0  0  0
   -4.1991    0.9960    2.9408 C   0  0  0  0  0  0  0  0  0  0  0  0
   -3.8982    0.1324    1.8908 C   0  0  0  0  0  0  0  0  0  0  0  0
   -3.0440   -0.8735    2.1190 F   0  0  0  0  0  0  0  0  0  0  0  0
   -1.8758   -1.7284   -0.7815 C   0  0  0  0  0  0  0  0  0  0  0  0
   -2.2855   -3.0507   -0.2254 C   0  0  0  0  0  0  0  0  0  0  0  0
   -0.6461   -1.3178   -1.2673 C   0  0  0  0  0  0  0  0  0  0  0  0
    0.6246   -2.0117   -1.3865 C   0  0  0  0  0  0  0  0  0  0  0  0
    0.7923   -3.1736   -1.0287 O   0  0  0  0  0  0  0  0  0  0  0  0
    7.7384    2.3524    2.4643 H   0  0  0  0  0  0  0  0  0  0  0  0
    7.2250    2.6994    0.7990 H   0  0  0  0  0  0  0  0  0  0  0  0
    8.0907    1.1746    1.1819 H   0  0  0  0  0  0  0  0  0  0  0  0
    6.2756   -0.0201    0.2074 H   0  0  0  0  0  0  0  0  0  0  0  0
    5.3384    1.4645   -0.0786 H   0  0  0  0  0  0  0  0  0  0  0  0
    4.5107   -0.9285    1.6511 H   0  0  0  0  0  0  0  0  0  0  0  0
    3.6255    0.5952    1.6352 H   0  0  0  0  0  0  0  0  0  0  0  0
    2.7108    0.0683   -0.4320 H   0  0  0  0  0  0  0  0  0  0  0  0
    3.4444   -1.3604   -3.0038 H   0  0  0  0  0  0  0  0  0  0  0  0
    2.8867   -2.8815   -2.2627 H   0  0  0  0  0  0  0  0  0  0  0  0
    0.2323    1.7648   -2.5623 H   0  0  0  0  0  0  0  0  0  0  0  0
   -2.1393    2.2873   -2.5382 H   0  0  0  0  0  0  0  0  0  0  0  0
   -2.8142    2.3359   -0.9061 H   0  0  0  0  0  0  0  0  0  0  0  0
   -3.7234    1.5837   -2.2420 H   0  0  0  0  0  0  0  0  0  0  0  0
   -4.4508   -1.6718   -0.2170 H   0  0  0  0  0  0  0  0  0  0  0  0
   -4.7233   -0.4100   -1.4059 H   0  0  0  0  0  0  0  0  0  0  0  0
   -5.8911    1.4755   -0.5136 H   0  0  0  0  0  0  0  0  0  0  0  0
   -6.4228    3.0066    1.3453 H   0  0  0  0  0  0  0  0  0  0  0  0
   -5.3439    2.7115    3.5608 H   0  0  0  0  0  0  0  0  0  0  0  0
   -3.7270    0.8473    3.9071 H   0  0  0  0  0  0  0  0  0  0  0  0
   -2.6848   -2.9428    0.7872 H   0  0  0  0  0  0  0  0  0  0  0  0
   -3.0528   -3.5079   -0.8586 H   0  0  0  0  0  0  0  0  0  0  0  0
   -1.4490   -3.7510   -0.1688 H   0  0  0  0  0  0  0  0  0  0  0  0
  1  2  1  0
  2  3  1  0
  3  4  1  0
  4  5  1  0
  5  6  1  0
  6  7  2  0
  6  8  1  0
  8  9  1  0
  9 10  1  0
 10 11  2  0
 11 12  1  0
 12 13  2  0
 13 14  1  0
 13 15  1  0
 15 16  1  0
 16 17  1  0
 17 18  2  0
 18 19  1  0
 19 20  2  0
 20 21  1  0
 21 22  2  0
 22 23  1  0
 15 24  1  0
 24 25  1  0
 24 26  2  0
 26 27  1  0
 27 28  2  0
 27  9  1  0
 26 12  1  0
 22 17  1  0
  1 29  1  0
  1 30  1  0
  1 31  1  0
  3 32  1  0
  3 33  1  0
  4 34  1  0
  4 35  1  0
  5 36  1  0
  8 37  1  0
  8 38  1  0
 11 39  1  0
 14 40  1  0
 14 41  1  0
 14 42  1  0
 16 43  1  0
 16 44  1  0
 18 45  1  0
 19 46  1  0
 20 47  1  0
 21 48  1  0
 25 49  1  0
 25 50  1  0
 25 51  1  0
M  END
$$$$
