
     RDKit          3D

 47 50  0  0  0  0  0  0  0  0999 V2000
    5.9570   -2.6520    0.2247 C   0  0  0  0  0  0  0  0  0  0  0  0
    5.6119   -1.4370    0.9994 C   0  0  0  0  0  0  0  0  0  0  0  0
    6.3112   -0.9005    2.0623 C   0  0  0  0  0  0  0  0  0  0  0  0
    5.7036    0.2184    2.5320 O   0  0  0  0  0  0  0  0  0  0  0  0
    4.5954    0.4170    1.7698 C   0  0  0  0  0  0  0  0  0  0  0  0
    3.6880    1.4560    1.9192 C   0  0  0  0  0  0  0  0  0  0  0  0
    2.6166    1.4592    1.0171 C   0  0  0  0  0  0  0  0  0  0  0  0
    1.7028    2.5135    1.1808 O   0  0  0  0  0  0  0  0  0  0  0  0
    0.5886    2.6413    0.3758 C   0  0  0  0  0  0  0  0  0  0  0  0
   -0.1937    3.5741    0.5360 O   0  0  0  0  0  0  0  0  0  0  0  0
    0.3742    1.6121   -0.6857 C   0  0  0  0  0  0  0  0  0  0  0  0
   -0.8806    1.8619   -1.5096 C   0  0  0  0  0  0  0  0  0  0  0  0
   -2.1921    1.5831   -0.7608 C   0  0  0  0  0  0  0  0  0  0  0  0
   -2.5653    0.1101   -0.6952 C   0  0  0  0  0  0  0  0  0  0  0  0
   -1.8501   -0.7640   -1.1825 O   0  0  0  0  0  0  0  0  0  0  0  0
   -3.7643   -0.1949   -0.0687 N   0  0  0  0  0  0  0  0  0  0  0  0
   -4.2230   -1.5856   -0.0297 C   0  0  0  0  0  0  0  0  0  0  0  0
   -5.7507   -1.6578   -0.1097 C   0  0  0  0  0  0  0  0  0  0  0  0
   -6.4253   -0.9337    0.9299 O   0  0  0  0  0  0  0  0  0  0  0  0
   -5.6457    0.1188    1.5113 C   0  0  0  0  0  0  0  0  0  0  0  0
   -4.6853    0.7839    0.5199 C   0  0  0  0  0  0  0  0  0  0  0  0
    1.2635    0.6113   -0.8794 C   0  0  0  0  0  0  0  0  0  0  0  0
    1.1435   -0.4341   -1.9623 C   0  0  0  0  0  0  0  0  0  0  0  0
    2.4378    0.5023    0.0175 C   0  0  0  0  0  0  0  0  0  0  0  0
    3.3921   -0.5318   -0.0834 C   0  0  0  0  0  0  0  0  0  0  0  0
    4.4887   -0.5757    0.8055 C   0  0  0  0  0  0  0  0  0  0  0  0
    6.1057   -2.4033   -0.8309 H   0  0  0  0  0  0  0  0  0  0  0  0
    6.8772   -3.1140    0.5967 H   0  0  0  0  0  0  0  0  0  0  0  0
    5.1537   -3.3922    0.2961 H   0  0  0  0  0  0  0  0  0  0  0  0
    7.2177   -1.1853    2.5790 H   0  0  0  0  0  0  0  0  0  0  0  0
    3.8055    2.2108    2.6858 H   0  0  0  0  0  0  0  0  0  0  0  0
   -0.8747    1.3171   -2.4569 H   0  0  0  0  0  0  0  0  0  0  0  0
   -0.8773    2.9182   -1.8132 H   0  0  0  0  0  0  0  0  0  0  0  0
   -2.1431    1.9768    0.2584 H   0  0  0  0  0  0  0  0  0  0  0  0
   -3.0009    2.1011   -1.2904 H   0  0  0  0  0  0  0  0  0  0  0  0
   -3.8733   -2.0032    0.9216 H   0  0  0  0  0  0  0  0  0  0  0  0
   -3.7739   -2.1652   -0.8423 H   0  0  0  0  0  0  0  0  0  0  0  0
   -6.0969   -1.2503   -1.0667 H   0  0  0  0  0  0  0  0  0  0  0  0
   -6.0851   -2.6987   -0.0568 H   0  0  0  0  0  0  0  0  0  0  0  0
   -5.0895   -0.3057    2.3553 H   0  0  0  0  0  0  0  0  0  0  0  0
   -6.3417    0.8591    1.9182 H   0  0  0  0  0  0  0  0  0  0  0  0
   -5.2470    1.2231   -0.3124 H   0  0  0  0  0  0  0  0  0  0  0  0
   -4.1262    1.5791    1.0189 H   0  0  0  0  0  0  0  0  0  0  0  0
    2.0355   -0.4300   -2.5992 H   0  0  0  0  0  0  0  0  0  0  0  0
    0.2987   -0.2894   -2.6360 H   0  0  0  0  0  0  0  0  0  0  0  0
    1.0267   -1.4309   -1.5225 H   0  0  0  0  0  0  0  0  0  0  0  0
    3.3103   -1.3126   -0.8320 H   0  0  0  0  0  0  0  0  0  0  0  0
  1  2  1  0
  2  3  2  0
  3  4  1  0
  4  5  1  0
  5  6  2  0
  6  7  1  0
  7  8  1  0
  8  9  1  0
  9 10  2  0
  9 11  1  0
 11 12  1  0
 12 13  1  0
 13 14  1  0
 14 15  2  0
 14 16  1  0
 16 17  1  0
 17 18  1  0
 18 19  1  0
 19 20  1  0
 20 21  1  0
 11 22  2  0
 22 23  1  0
 22 24  1  0
 24 25  1  0
 25 26  2  0
 26  2  1  0
 26  5  1  0
 24  7  2  0
 21 16  1  0
  1 27  1  0
  1 28  1  0
  1 29  1  0
  3 30  1  0
  6 31  1  0
 12 32  1  0
 12 33  1  0
 13 34  1  0
 13 35  1  0
 17 36  1  0
 17 37  1  0
 18 38  1  0
 18 39  1  0
 20 40  1  0
 20 41  1  0
 21 42  1  0
 21 43  1  0
 23 44  1  0
 23 45  1  0
 23 46  1  0
 25 47  1  0
M  END
$$$$
