
     RDKit          3D

 39 40  0  0  0  0  0  0  0  0999 V2000
    5.0661    1.9746   -0.4698 C   0  0  0  0  0  0  0  0  0  0  0  0
    3.6859    1.5789    0.0314 C   0  0  0  0  0  0  0  0  0  0  0  0
    3.4403    0.0771   -0.1373 C   0  0  0  0  0  0  0  0  0  0  0  0
    2.0626   -0.3526    0.3774 C   0  0  0  0  0  0  0  0  0  0  0  0
    0.9067    0.0506   -0.5381 C   0  0  0  0  0  0  0  0  0  0  0  0
    1.1525    0.5502   -1.6381 O   0  0  0  0  0  0  0  0  0  0  0  0
   -0.4070   -0.2039   -0.0713 N   0  0  0  0  0  0  0  0  0  0  0  0
   -1.5205    0.3335   -0.8291 C   0  0  0  0  0  0  0  0  0  0  0  0
   -1.4209    1.6058   -1.4205 C   0  0  0  0  0  0  0  0  0  0  0  0
   -2.4838    2.1706   -2.1359 C   0  0  0  0  0  0  0  0  0  0  0  0
   -3.6738    1.4684   -2.2699 C   0  0  0  0  0  0  0  0  0  0  0  0
   -5.1132    2.2226   -3.2319 Br  0  0  0  0  0  0  0  0  0  0  0  0
   -3.8054    0.2099   -1.6959 C   0  0  0  0  0  0  0  0  0  0  0  0
   -2.7368   -0.3503   -0.9819 C   0  0  0  0  0  0  0  0  0  0  0  0
   -0.6542   -1.1079    1.0722 C   0  0  0  0  0  0  0  0  0  0  0  0
   -0.9167   -2.5184    0.6122 C   0  0  0  0  0  0  0  0  0  0  0  0
   -1.7863   -3.2083    1.3619 C   0  0  0  0  0  0  0  0  0  0  0  0
   -2.3775   -2.2489    2.6799 S   0  0  0  0  0  6  0  0  0  0  0  0
   -3.8238   -2.2239    2.6448 O   0  0  0  0  0  0  0  0  0  0  0  0
   -1.6394   -2.5885    3.8783 O   0  0  0  0  0  0  0  0  0  0  0  0
   -1.7539   -0.6931    2.0556 C   0  0  0  0  0  0  0  0  0  0  0  0
    5.1774    1.7445   -1.5342 H   0  0  0  0  0  0  0  0  0  0  0  0
    5.2241    3.0493   -0.3362 H   0  0  0  0  0  0  0  0  0  0  0  0
    5.8504    1.4451    0.0806 H   0  0  0  0  0  0  0  0  0  0  0  0
    2.9313    2.1554   -0.5143 H   0  0  0  0  0  0  0  0  0  0  0  0
    3.5975    1.8523    1.0894 H   0  0  0  0  0  0  0  0  0  0  0  0
    4.2052   -0.4692    0.4288 H   0  0  0  0  0  0  0  0  0  0  0  0
    3.5615   -0.2076   -1.1894 H   0  0  0  0  0  0  0  0  0  0  0  0
    1.9062    0.0788    1.3719 H   0  0  0  0  0  0  0  0  0  0  0  0
    2.0619   -1.4462    0.4504 H   0  0  0  0  0  0  0  0  0  0  0  0
   -0.5149    2.2002   -1.3209 H   0  0  0  0  0  0  0  0  0  0  0  0
   -2.3644    3.1559   -2.5789 H   0  0  0  0  0  0  0  0  0  0  0  0
   -4.7306   -0.3517   -1.8014 H   0  0  0  0  0  0  0  0  0  0  0  0
   -2.8929   -1.3475   -0.5888 H   0  0  0  0  0  0  0  0  0  0  0  0
    0.2561   -1.1750    1.6731 H   0  0  0  0  0  0  0  0  0  0  0  0
   -0.4135   -2.9458   -0.2473 H   0  0  0  0  0  0  0  0  0  0  0  0
   -2.1041   -4.2289    1.2214 H   0  0  0  0  0  0  0  0  0  0  0  0
   -2.5921   -0.1531    1.6135 H   0  0  0  0  0  0  0  0  0  0  0  0
   -1.3600   -0.1030    2.8879 H   0  0  0  0  0  0  0  0  0  0  0  0
  1  2  1  0
  2  3  1  0
  3  4  1  0
  4  5  1  0
  5  6  2  0
  5  7  1  0
  7  8  1  0
  8  9  2  0
  9 10  1  0
 10 11  2  0
 11 12  1  0
 11 13  1  0
 13 14  2  0
  7 15  1  0
 15 16  1  0
 16 17  2  0
 17 18  1  0
 18 19  2  0
 18 20  2  0
 18 21  1  0
 14  8  1  0
 21 15  1  0
  1 22  1  0
  1 23  1  0
  1 24  1  0
  2 25  1  0
  2 26  1  0
  3 27  1  0
  3 28  1  0
  4 29  1  0
  4 30  1  0
  9 31  1  0
 10 32  1  0
 13 33  1  0
 14 34  1  0
 15 35  1  0
 16 36  1  0
 17 37  1  0
 21 38  1  0
 21 39  1  0
M  END
$$$$
