
     RDKit          3D

 52 55  0  0  0  0  0  0  0  0999 V2000
   -6.3269    0.4120    3.0880 C   0  0  0  0  0  0  0  0  0  0  0  0
   -5.9695    0.6214    1.7293 O   0  0  0  0  0  0  0  0  0  0  0  0
   -4.9373   -0.1266    1.2182 C   0  0  0  0  0  0  0  0  0  0  0  0
   -4.1877   -1.0490    1.9609 C   0  0  0  0  0  0  0  0  0  0  0  0
   -3.1516   -1.7651    1.3588 C   0  0  0  0  0  0  0  0  0  0  0  0
   -2.8624   -1.5476    0.0122 C   0  0  0  0  0  0  0  0  0  0  0  0
   -1.5395   -2.4343   -0.7717 S   0  0  0  0  0  6  0  0  0  0  0  0
   -2.0703   -2.9827   -2.0012 O   0  0  0  0  0  0  0  0  0  0  0  0
   -0.9000   -3.2777    0.2160 O   0  0  0  0  0  0  0  0  0  0  0  0
   -0.4350   -1.1822   -1.1734 N   0  0  0  0  0  0  0  0  0  0  0  0
    0.1698   -0.4887    0.0002 C   0  0  0  0  0  0  0  0  0  0  0  0
    0.9116    0.7548   -0.4824 C   0  0  0  0  0  0  0  0  0  0  0  0
    1.9990    0.3960   -1.4995 C   0  0  0  0  0  0  0  0  0  0  0  0
    3.0166   -0.4090   -0.8895 O   0  0  0  0  0  0  0  0  0  0  0  0
    4.0437    0.1975   -0.2213 C   0  0  0  0  0  0  0  0  0  0  0  0
    4.9986   -0.7013    0.2976 C   0  0  0  0  0  0  0  0  0  0  0  0
    6.1112   -0.2464    1.0121 C   0  0  0  0  0  0  0  0  0  0  0  0
    6.2377    1.1113    1.1917 C   0  0  0  0  0  0  0  0  0  0  0  0
    5.3089    1.9926    0.6910 C   0  0  0  0  0  0  0  0  0  0  0  0
    4.2016    1.5704   -0.0191 C   0  0  0  0  0  0  0  0  0  0  0  0
    5.6153    3.2872    0.9806 O   0  0  0  0  0  0  0  0  0  0  0  0
    6.8442    3.1171    1.7178 C   0  0  0  0  0  0  0  0  0  0  0  0
    7.2443    1.7377    1.8560 O   0  0  0  0  0  0  0  0  0  0  0  0
    1.3919   -0.4281   -2.6405 C   0  0  0  0  0  0  0  0  0  0  0  0
    0.6262   -1.6400   -2.1168 C   0  0  0  0  0  0  0  0  0  0  0  0
   -3.6038   -0.6381   -0.7478 C   0  0  0  0  0  0  0  0  0  0  0  0
   -4.6458    0.0749   -0.1491 C   0  0  0  0  0  0  0  0  0  0  0  0
   -5.4244    0.9981   -0.8035 O   0  0  0  0  0  0  0  0  0  0  0  0
   -5.3025    1.0755   -2.2172 C   0  0  0  0  0  0  0  0  0  0  0  0
   -7.1760    1.0646    3.3159 H   0  0  0  0  0  0  0  0  0  0  0  0
   -6.6489   -0.6212    3.2580 H   0  0  0  0  0  0  0  0  0  0  0  0
   -5.5063    0.6878    3.7586 H   0  0  0  0  0  0  0  0  0  0  0  0
   -4.3870   -1.2337    3.0115 H   0  0  0  0  0  0  0  0  0  0  0  0
   -2.5802   -2.4819    1.9448 H   0  0  0  0  0  0  0  0  0  0  0  0
   -0.6106   -0.1672    0.6957 H   0  0  0  0  0  0  0  0  0  0  0  0
    0.8472   -1.1630    0.5362 H   0  0  0  0  0  0  0  0  0  0  0  0
    1.3435    1.2605    0.3876 H   0  0  0  0  0  0  0  0  0  0  0  0
    0.1991    1.4489   -0.9453 H   0  0  0  0  0  0  0  0  0  0  0  0
    2.4319    1.2973   -1.9491 H   0  0  0  0  0  0  0  0  0  0  0  0
    4.8684   -1.7699    0.1377 H   0  0  0  0  0  0  0  0  0  0  0  0
    6.8463   -0.9368    1.4093 H   0  0  0  0  0  0  0  0  0  0  0  0
    3.5028    2.3117   -0.3829 H   0  0  0  0  0  0  0  0  0  0  0  0
    7.6415    3.6635    1.2013 H   0  0  0  0  0  0  0  0  0  0  0  0
    6.7141    3.5465    2.7176 H   0  0  0  0  0  0  0  0  0  0  0  0
    0.7144    0.2068   -3.2253 H   0  0  0  0  0  0  0  0  0  0  0  0
    2.1849   -0.7761   -3.3130 H   0  0  0  0  0  0  0  0  0  0  0  0
    1.2999   -2.3458   -1.6172 H   0  0  0  0  0  0  0  0  0  0  0  0
    0.1721   -2.1495   -2.9732 H   0  0  0  0  0  0  0  0  0  0  0  0
   -3.3432   -0.5021   -1.7926 H   0  0  0  0  0  0  0  0  0  0  0  0
   -6.0677    1.7687   -2.5815 H   0  0  0  0  0  0  0  0  0  0  0  0
   -4.3253    1.4774   -2.5037 H   0  0  0  0  0  0  0  0  0  0  0  0
   -5.4848    0.1032   -2.6878 H   0  0  0  0  0  0  0  0  0  0  0  0
  1  2  1  0
  2  3  1  0
  3  4  2  0
  4  5  1  0
  5  6  2  0
  6  7  1  0
  7  8  2  0
  7  9  2  0
  7 10  1  0
 10 11  1  0
 11 12  1  0
 12 13  1  0
 13 14  1  0
 14 15  1  0
 15 16  2  0
 16 17  1  0
 17 18  2  0
 18 19  1  0
 19 20  2  0
 19 21  1  0
 21 22  1  0
 22 23  1  0
 13 24  1  0
 24 25  1  0
  6 26  1  0
 26 27  2  0
 27 28  1  0
 28 29  1  0
 27  3  1  0
 25 10  1  0
 20 15  1  0
 23 18  1  0
  1 30  1  0
  1 31  1  0
  1 32  1  0
  4 33  1  0
  5 34  1  0
 11 35  1  0
 11 36  1  0
 12 37  1  0
 12 38  1  0
 13 39  1  0
 16 40  1  0
 17 41  1  0
 20 42  1  0
 22 43  1  0
 22 44  1  0
 24 45  1  0
 24 46  1  0
 25 47  1  0
 25 48  1  0
 26 49  1  0
 29 50  1  0
 29 51  1  0
 29 52  1  0
M  END
$$$$
