
     RDKit          3D

 42 44  0  0  0  0  0  0  0  0999 V2000
   -7.8499   -0.9916    0.9041 C   0  0  0  0  0  0  0  0  0  0  0  0
   -6.3440   -1.0150    0.9866 C   0  0  0  0  0  0  0  0  0  0  0  0
   -5.7767   -1.4058    1.9992 O   0  0  0  0  0  0  0  0  0  0  0  0
   -5.7577   -0.5738   -0.1863 N   0  0  0  0  0  0  0  0  0  0  0  0
   -4.3789   -0.4591   -0.4699 C   0  0  0  0  0  0  0  0  0  0  0  0
   -4.0340    0.0079   -1.7471 C   0  0  0  0  0  0  0  0  0  0  0  0
   -2.6997    0.1684   -2.1465 C   0  0  0  0  0  0  0  0  0  0  0  0
   -1.7139   -0.1576   -1.2108 C   0  0  0  0  0  0  0  0  0  0  0  0
   -2.0236   -0.6236    0.0630 C   0  0  0  0  0  0  0  0  0  0  0  0
   -3.3684   -0.7785    0.4437 C   0  0  0  0  0  0  0  0  0  0  0  0
   -0.8829   -0.8672    0.7868 N   0  0  0  0  0  0  0  0  0  0  0  0
    0.1210   -0.5693   -0.0118 C   0  0  0  0  0  0  0  0  0  0  0  0
    1.5639   -0.6686    0.3523 C   0  0  0  0  0  0  0  0  0  0  0  0
    2.0380    0.6112    1.0422 C   0  0  0  0  0  0  0  0  0  0  0  0
    3.4754    0.6343    1.2409 N   0  0  0  0  0  0  0  0  0  0  0  0
    4.3418    0.8879    0.1907 C   0  0  0  0  0  0  0  0  0  0  0  0
    3.9114    1.0980   -0.9428 O   0  0  0  0  0  0  0  0  0  0  0  0
    5.7524    0.8684    0.5328 C   0  0  0  0  0  0  0  0  0  0  0  0
    6.4436    0.6906    1.7208 C   0  0  0  0  0  0  0  0  0  0  0  0
    7.8245    0.7788    1.4139 C   0  0  0  0  0  0  0  0  0  0  0  0
    7.9001    1.0059    0.0620 C   0  0  0  0  0  0  0  0  0  0  0  0
    6.6585    1.0609   -0.4792 O   0  0  0  0  0  0  0  0  0  0  0  0
   -0.3388   -0.1286   -1.2348 N   0  0  0  0  0  0  0  0  0  0  0  0
    0.4906    0.2946   -2.3392 C   0  0  0  0  0  0  0  0  0  0  0  0
   -8.1956   -0.0187    0.5430 H   0  0  0  0  0  0  0  0  0  0  0  0
   -8.1928   -1.7811    0.2297 H   0  0  0  0  0  0  0  0  0  0  0  0
   -8.2743   -1.1605    1.8979 H   0  0  0  0  0  0  0  0  0  0  0  0
   -6.3867   -0.3069   -0.9326 H   0  0  0  0  0  0  0  0  0  0  0  0
   -4.8101    0.2600   -2.4669 H   0  0  0  0  0  0  0  0  0  0  0  0
   -2.4575    0.5315   -3.1388 H   0  0  0  0  0  0  0  0  0  0  0  0
   -3.5714   -1.1407    1.4433 H   0  0  0  0  0  0  0  0  0  0  0  0
    1.7084   -1.5198    1.0293 H   0  0  0  0  0  0  0  0  0  0  0  0
    2.1687   -0.8893   -0.5337 H   0  0  0  0  0  0  0  0  0  0  0  0
    1.7640    1.4957    0.4542 H   0  0  0  0  0  0  0  0  0  0  0  0
    1.5708    0.7134    2.0281 H   0  0  0  0  0  0  0  0  0  0  0  0
    3.8384    0.3934    2.1514 H   0  0  0  0  0  0  0  0  0  0  0  0
    6.0144    0.5218    2.6976 H   0  0  0  0  0  0  0  0  0  0  0  0
    8.6607    0.6900    2.0935 H   0  0  0  0  0  0  0  0  0  0  0  0
    8.7181    1.1452   -0.6316 H   0  0  0  0  0  0  0  0  0  0  0  0
   -0.1281    0.6850   -3.1493 H   0  0  0  0  0  0  0  0  0  0  0  0
    1.1628    1.0820   -1.9904 H   0  0  0  0  0  0  0  0  0  0  0  0
    1.0574   -0.5693   -2.6952 H   0  0  0  0  0  0  0  0  0  0  0  0
  1  2  1  0
  2  3  2  0
  2  4  1  0
  4  5  1  0
  5  6  2  0
  6  7  1  0
  7  8  2  0
  8  9  1  0
  9 10  2  0
  9 11  1  0
 11 12  2  0
 12 13  1  0
 13 14  1  0
 14 15  1  0
 15 16  1  0
 16 17  2  0
 16 18  1  0
 18 19  2  0
 19 20  1  0
 20 21  2  0
 21 22  1  0
 12 23  1  0
 23 24  1  0
 10  5  1  0
 22 18  1  0
 23  8  1  0
  1 25  1  0
  1 26  1  0
  1 27  1  0
  4 28  1  0
  6 29  1  0
  7 30  1  0
 10 31  1  0
 13 32  1  0
 13 33  1  0
 14 34  1  0
 14 35  1  0
 15 36  1  0
 19 37  1  0
 20 38  1  0
 21 39  1  0
 24 40  1  0
 24 41  1  0
 24 42  1  0
M  END
$$$$
