
     RDKit          3D

 53 56  0  0  0  0  0  0  0  0999 V2000
   -1.6811   -2.9517   -0.8068 C   0  0  0  0  0  0  0  0  0  0  0  0
   -1.5513   -1.5481   -0.6104 O   0  0  0  0  0  0  0  0  0  0  0  0
   -2.1541   -0.7281   -1.5276 C   0  0  0  0  0  0  0  0  0  0  0  0
   -3.0760   -1.1594   -2.4865 C   0  0  0  0  0  0  0  0  0  0  0  0
   -3.6253   -0.2553   -3.4042 C   0  0  0  0  0  0  0  0  0  0  0  0
   -3.2546    1.0871   -3.3811 C   0  0  0  0  0  0  0  0  0  0  0  0
   -2.3431    1.5334   -2.4290 C   0  0  0  0  0  0  0  0  0  0  0  0
   -1.8119    0.6343   -1.4918 C   0  0  0  0  0  0  0  0  0  0  0  0
   -0.8200    1.1635   -0.5321 C   0  0  0  0  0  0  0  0  0  0  0  0
    0.1718    1.7261   -0.9800 O   0  0  0  0  0  0  0  0  0  0  0  0
   -1.0599    0.9583    0.8562 N   0  0  0  0  0  0  0  0  0  0  0  0
   -2.4212    0.9005    1.4398 C   0  0  0  0  0  0  0  0  0  0  0  0
   -3.0985    2.2204    1.3318 C   0  0  0  0  0  0  0  0  0  0  0  0
   -3.0356    3.3848    2.0721 C   0  0  0  0  0  0  0  0  0  0  0  0
   -3.9504    4.2861    1.4767 C   0  0  0  0  0  0  0  0  0  0  0  0
   -4.5118    3.6172    0.4130 C   0  0  0  0  0  0  0  0  0  0  0  0
   -4.0013    2.3622    0.3164 O   0  0  0  0  0  0  0  0  0  0  0  0
    0.1361    1.3760    1.9798 S   0  0  0  0  0  6  0  0  0  0  0  0
    0.3014    2.8150    1.9774 O   0  0  0  0  0  0  0  0  0  0  0  0
   -0.1415    0.6845    3.2258 O   0  0  0  0  0  0  0  0  0  0  0  0
    1.6162    0.6205    1.3391 C   0  0  0  0  0  0  0  0  0  0  0  0
    2.6668    1.4319    0.8531 C   0  0  0  0  0  0  0  0  0  0  0  0
    3.8413    0.8514    0.3617 C   0  0  0  0  0  0  0  0  0  0  0  0
    3.9225   -0.5259    0.3884 C   0  0  0  0  0  0  0  0  0  0  0  0
    2.8818   -1.3217    0.8806 C   0  0  0  0  0  0  0  0  0  0  0  0
    1.7150   -0.7776    1.3691 C   0  0  0  0  0  0  0  0  0  0  0  0
    3.2736   -2.6609    0.7640 N   0  0  0  0  0  0  0  0  0  0  0  0
    2.4802   -3.7949    1.1404 C   0  0  0  0  0  0  0  0  0  0  0  0
    4.5609   -2.7170    0.1851 C   0  0  0  0  0  0  0  0  0  0  0  0
    5.2017   -3.7223   -0.0794 O   0  0  0  0  0  0  0  0  0  0  0  0
    4.9526   -1.3770   -0.0304 N   0  0  0  0  0  0  0  0  0  0  0  0
    6.1829   -0.9540   -0.6327 C   0  0  0  0  0  0  0  0  0  0  0  0
   -1.3216   -3.2488   -1.7978 H   0  0  0  0  0  0  0  0  0  0  0  0
   -2.7139   -3.2764   -0.6444 H   0  0  0  0  0  0  0  0  0  0  0  0
   -1.0552   -3.4519   -0.0614 H   0  0  0  0  0  0  0  0  0  0  0  0
   -3.3944   -2.1954   -2.5504 H   0  0  0  0  0  0  0  0  0  0  0  0
   -4.3408   -0.6043   -4.1454 H   0  0  0  0  0  0  0  0  0  0  0  0
   -3.6776    1.7844   -4.1012 H   0  0  0  0  0  0  0  0  0  0  0  0
   -2.0493    2.5815   -2.4084 H   0  0  0  0  0  0  0  0  0  0  0  0
   -3.0163    0.1285    0.9417 H   0  0  0  0  0  0  0  0  0  0  0  0
   -2.4042    0.5870    2.4887 H   0  0  0  0  0  0  0  0  0  0  0  0
   -2.4041    3.5608    2.9351 H   0  0  0  0  0  0  0  0  0  0  0  0
   -4.1707    5.2989    1.7847 H   0  0  0  0  0  0  0  0  0  0  0  0
   -5.2518    3.8775   -0.3319 H   0  0  0  0  0  0  0  0  0  0  0  0
    2.5581    2.5150    0.8374 H   0  0  0  0  0  0  0  0  0  0  0  0
    4.6429    1.4681   -0.0272 H   0  0  0  0  0  0  0  0  0  0  0  0
    0.9142   -1.3941    1.7580 H   0  0  0  0  0  0  0  0  0  0  0  0
    1.5655   -3.8089    0.5400 H   0  0  0  0  0  0  0  0  0  0  0  0
    3.0324   -4.7225    0.9661 H   0  0  0  0  0  0  0  0  0  0  0  0
    2.2268   -3.7253    2.2028 H   0  0  0  0  0  0  0  0  0  0  0  0
    6.7033   -0.2689    0.0440 H   0  0  0  0  0  0  0  0  0  0  0  0
    6.8253   -1.8160   -0.8314 H   0  0  0  0  0  0  0  0  0  0  0  0
    5.9642   -0.4486   -1.5777 H   0  0  0  0  0  0  0  0  0  0  0  0
  1  2  1  0
  2  3  1  0
  3  4  2  0
  4  5  1  0
  5  6  2  0
  6  7  1  0
  7  8  2  0
  8  9  1  0
  9 10  2  0
  9 11  1  0
 11 12  1  0
 12 13  1  0
 13 14  2  0
 14 15  1  0
 15 16  2  0
 16 17  1  0
 11 18  1  0
 18 19  2  0
 18 20  2  0
 18 21  1  0
 21 22  2  0
 22 23  1  0
 23 24  2  0
 24 25  1  0
 25 26  2  0
 25 27  1  0
 27 28  1  0
 27 29  1  0
 29 30  2  0
 29 31  1  0
 31 32  1  0
  8  3  1  0
 17 13  1  0
 26 21  1  0
 31 24  1  0
  1 33  1  0
  1 34  1  0
  1 35  1  0
  4 36  1  0
  5 37  1  0
  6 38  1  0
  7 39  1  0
 12 40  1  0
 12 41  1  0
 14 42  1  0
 15 43  1  0
 16 44  1  0
 22 45  1  0
 23 46  1  0
 26 47  1  0
 28 48  1  0
 28 49  1  0
 28 50  1  0
 32 51  1  0
 32 52  1  0
 32 53  1  0
M  END
$$$$
