
     RDKit          3D

 49 52  0  0  0  0  0  0  0  0999 V2000
   -6.9377   -0.5301   -1.2805 C   0  0  0  0  0  0  0  0  0  0  0  0
   -5.5251   -0.3318   -1.6137 N   0  0  0  0  0  0  0  0  0  0  0  0
   -5.0385    0.9783   -1.1406 C   0  0  0  0  0  0  0  0  0  0  0  0
   -4.5004    1.0215    0.2943 C   0  0  0  0  0  0  0  0  0  0  0  0
   -3.1084    0.5018    0.4181 C   0  0  0  0  0  0  0  0  0  0  0  0
   -2.2034    0.9504    1.2636 N   0  0  0  0  0  0  0  0  0  0  0  0
   -1.0371    0.2720    1.0445 N   0  0  0  0  0  0  0  0  0  0  0  0
   -1.2325   -0.5887    0.0658 C   0  0  0  0  0  0  0  0  0  0  0  0
   -0.1895   -1.4901   -0.5248 C   0  0  0  0  0  0  0  0  0  0  0  0
    0.5659   -2.2678    0.5596 C   0  0  0  0  0  0  0  0  0  0  0  0
    1.6968   -1.3310    0.9691 C   0  0  0  0  0  0  0  0  0  0  0  0
    1.9957   -0.5705   -0.2343 N   0  0  0  0  0  0  0  0  0  0  0  0
    3.0852    0.2375   -0.4926 C   0  0  0  0  0  0  0  0  0  0  0  0
    3.2415    0.7479   -1.5994 O   0  0  0  0  0  0  0  0  0  0  0  0
    3.9392    0.3887    0.5728 N   0  0  0  0  0  0  0  0  0  0  0  0
    5.1593    1.0986    0.6169 C   0  0  0  0  0  0  0  0  0  0  0  0
    5.7789    1.6798   -0.4906 C   0  0  0  0  0  0  0  0  0  0  0  0
    6.9879    2.3582   -0.3274 C   0  0  0  0  0  0  0  0  0  0  0  0
    7.5788    2.9184   -1.3937 F   0  0  0  0  0  0  0  0  0  0  0  0
    7.5989    2.4683    0.9197 C   0  0  0  0  0  0  0  0  0  0  0  0
    6.9923    1.8863    2.0306 C   0  0  0  0  0  0  0  0  0  0  0  0
    5.7846    1.2089    1.8696 C   0  0  0  0  0  0  0  0  0  0  0  0
    5.2092    0.6464    2.9469 F   0  0  0  0  0  0  0  0  0  0  0  0
    0.9291   -0.7002   -1.2166 C   0  0  0  0  0  0  0  0  0  0  0  0
   -2.5540   -0.5137   -0.3238 N   0  0  0  0  0  0  0  0  0  0  0  0
   -3.2109   -1.3251   -1.3293 C   0  0  0  0  0  0  0  0  0  0  0  0
   -4.7275   -1.4802   -1.1546 C   0  0  0  0  0  0  0  0  0  0  0  0
   -7.3005   -1.4805   -1.6880 H   0  0  0  0  0  0  0  0  0  0  0  0
   -7.1119   -0.5305   -0.1988 H   0  0  0  0  0  0  0  0  0  0  0  0
   -7.5541    0.2553   -1.7307 H   0  0  0  0  0  0  0  0  0  0  0  0
   -5.8418    1.7206   -1.2394 H   0  0  0  0  0  0  0  0  0  0  0  0
   -4.2593    1.3207   -1.8356 H   0  0  0  0  0  0  0  0  0  0  0  0
   -4.4954    2.0700    0.6209 H   0  0  0  0  0  0  0  0  0  0  0  0
   -5.1629    0.4885    0.9863 H   0  0  0  0  0  0  0  0  0  0  0  0
   -0.6436   -2.1840   -1.2387 H   0  0  0  0  0  0  0  0  0  0  0  0
    0.9952   -3.1753    0.1153 H   0  0  0  0  0  0  0  0  0  0  0  0
   -0.0521   -2.5716    1.4108 H   0  0  0  0  0  0  0  0  0  0  0  0
    1.3878   -0.6302    1.7520 H   0  0  0  0  0  0  0  0  0  0  0  0
    2.5798   -1.8783    1.3128 H   0  0  0  0  0  0  0  0  0  0  0  0
    3.6002    0.0713    1.4702 H   0  0  0  0  0  0  0  0  0  0  0  0
    5.3564    1.6268   -1.4882 H   0  0  0  0  0  0  0  0  0  0  0  0
    8.5392    3.0041    1.0122 H   0  0  0  0  0  0  0  0  0  0  0  0
    7.4461    1.9548    3.0145 H   0  0  0  0  0  0  0  0  0  0  0  0
    0.6202    0.2862   -1.5811 H   0  0  0  0  0  0  0  0  0  0  0  0
    1.3375   -1.2685   -2.0611 H   0  0  0  0  0  0  0  0  0  0  0  0
   -2.7774   -2.3289   -1.2626 H   0  0  0  0  0  0  0  0  0  0  0  0
   -2.9542   -0.9073   -2.3102 H   0  0  0  0  0  0  0  0  0  0  0  0
   -4.9535   -1.7282   -0.1083 H   0  0  0  0  0  0  0  0  0  0  0  0
   -5.0344   -2.3487   -1.7525 H   0  0  0  0  0  0  0  0  0  0  0  0
  1  2  1  0
  2  3  1  0
  3  4  1  0
  4  5  1  0
  5  6  2  0
  6  7  1  0
  7  8  2  0
  8  9  1  0
  9 10  1  0
 10 11  1  0
 11 12  1  0
 12 13  1  0
 13 14  2  0
 13 15  1  0
 15 16  1  0
 16 17  2  0
 17 18  1  0
 18 19  1  0
 18 20  2  0
 20 21  1  0
 21 22  2  0
 22 23  1  0
 12 24  1  0
  8 25  1  0
 25 26  1  0
 26 27  1  0
 27  2  1  0
 25  5  1  0
 24  9  1  0
 22 16  1  0
  1 28  1  0
  1 29  1  0
  1 30  1  0
  3 31  1  0
  3 32  1  0
  4 33  1  0
  4 34  1  0
  9 35  1  0
 10 36  1  0
 10 37  1  0
 11 38  1  0
 11 39  1  0
 15 40  1  0
 17 41  1  0
 20 42  1  0
 21 43  1  0
 24 44  1  0
 24 45  1  0
 26 46  1  0
 26 47  1  0
 27 48  1  0
 27 49  1  0
M  END
$$$$
