
     RDKit          3D

 41 43  0  0  0  0  0  0  0  0999 V2000
   -1.6417   -2.5803   -1.9373 O   0  0  0  0  0  0  0  0  0  0  0  0
   -1.4073   -2.3158   -0.7635 C   0  0  0  0  0  0  0  0  0  0  0  0
   -0.0118   -2.2916   -0.1762 C   0  0  0  0  0  0  0  0  0  0  0  0
    1.0454   -2.0891   -1.2557 C   0  0  0  0  0  0  0  0  0  0  0  0
    2.2569   -1.3996   -0.6810 C   0  0  0  0  0  0  0  0  0  0  0  0
    3.2921   -2.0967   -0.3374 N   0  0  0  0  0  0  0  0  0  0  0  0
    4.4006   -1.4414    0.1941 N   0  0  0  0  0  0  0  0  0  0  0  0
    4.3953   -0.1523    0.3368 C   0  0  0  0  0  0  0  0  0  0  0  0
    5.6084    0.5094    0.8969 C   0  0  0  0  0  0  0  0  0  0  0  0
    5.6282    1.8376    1.0624 C   0  0  0  0  0  0  0  0  0  0  0  0
    4.4843    2.6340    0.7047 C   0  0  0  0  0  0  0  0  0  0  0  0
    3.3937    2.0436    0.2002 C   0  0  0  0  0  0  0  0  0  0  0  0
    3.3343    0.6692    0.0076 N   0  0  0  0  0  0  0  0  0  0  0  0
    2.1866    0.0954   -0.4964 C   0  0  0  0  0  0  0  0  0  0  0  0
    1.1429    0.6766   -0.7775 O   0  0  0  0  0  0  0  0  0  0  0  0
   -2.3899   -2.0343    0.1610 N   0  0  0  0  0  0  0  0  0  0  0  0
   -3.7677   -1.8241   -0.2476 C   0  0  0  0  0  0  0  0  0  0  0  0
   -3.9851   -0.4899   -0.9752 C   0  0  0  0  0  0  0  0  0  0  0  0
   -3.5507    0.7022   -0.1562 C   0  0  0  0  0  0  0  0  0  0  0  0
   -4.3590    1.2136    0.8611 C   0  0  0  0  0  0  0  0  0  0  0  0
   -3.8879    2.2843    1.6068 C   0  0  0  0  0  0  0  0  0  0  0  0
   -2.6838    2.8650    1.4153 N   0  0  0  0  0  0  0  0  0  0  0  0
   -1.9211    2.3598    0.4222 C   0  0  0  0  0  0  0  0  0  0  0  0
   -2.3053    1.2968   -0.3788 C   0  0  0  0  0  0  0  0  0  0  0  0
    0.0406   -1.4958    0.5762 H   0  0  0  0  0  0  0  0  0  0  0  0
    0.1584   -3.2417    0.3432 H   0  0  0  0  0  0  0  0  0  0  0  0
    0.6730   -1.4843   -2.0906 H   0  0  0  0  0  0  0  0  0  0  0  0
    1.3426   -3.0574   -1.6752 H   0  0  0  0  0  0  0  0  0  0  0  0
    6.4468   -0.1263    1.1541 H   0  0  0  0  0  0  0  0  0  0  0  0
    6.5021    2.3374    1.4685 H   0  0  0  0  0  0  0  0  0  0  0  0
    4.5266    3.7083    0.8536 H   0  0  0  0  0  0  0  0  0  0  0  0
    2.5160    2.6227   -0.0762 H   0  0  0  0  0  0  0  0  0  0  0  0
   -2.1101   -1.6263    1.0447 H   0  0  0  0  0  0  0  0  0  0  0  0
   -4.3781   -1.8743    0.6605 H   0  0  0  0  0  0  0  0  0  0  0  0
   -4.0661   -2.6501   -0.9027 H   0  0  0  0  0  0  0  0  0  0  0  0
   -3.4473   -0.4893   -1.9315 H   0  0  0  0  0  0  0  0  0  0  0  0
   -5.0470   -0.3825   -1.2292 H   0  0  0  0  0  0  0  0  0  0  0  0
   -5.3357    0.7927    1.0747 H   0  0  0  0  0  0  0  0  0  0  0  0
   -4.4856    2.7144    2.4054 H   0  0  0  0  0  0  0  0  0  0  0  0
   -0.9579    2.8415    0.2805 H   0  0  0  0  0  0  0  0  0  0  0  0
   -1.6355    0.9385   -1.1553 H   0  0  0  0  0  0  0  0  0  0  0  0
  1  2  2  0
  2  3  1  0
  3  4  1  0
  4  5  1  0
  5  6  2  0
  6  7  1  0
  7  8  2  0
  8  9  1  0
  9 10  2  0
 10 11  1  0
 11 12  2  0
 12 13  1  0
 13 14  1  0
 14 15  2  0
  2 16  1  0
 16 17  1  0
 17 18  1  0
 18 19  1  0
 19 20  2  0
 20 21  1  0
 21 22  2  0
 22 23  1  0
 23 24  2  0
 14  5  1  0
 24 19  1  0
 13  8  1  0
  3 25  1  0
  3 26  1  0
  4 27  1  0
  4 28  1  0
  9 29  1  0
 10 30  1  0
 11 31  1  0
 12 32  1  0
 16 33  1  0
 17 34  1  0
 17 35  1  0
 18 36  1  0
 18 37  1  0
 20 38  1  0
 21 39  1  0
 23 40  1  0
 24 41  1  0
M  END
$$$$
