
     RDKit          3D

 45 48  0  0  0  0  0  0  0  0999 V2000
    5.9378   -0.5394    0.4695 C   0  0  0  0  0  0  0  0  0  0  0  0
    4.7694   -0.7400   -0.3153 O   0  0  0  0  0  0  0  0  0  0  0  0
    3.5754   -0.7858    0.3499 C   0  0  0  0  0  0  0  0  0  0  0  0
    3.3867   -0.5533    1.7103 C   0  0  0  0  0  0  0  0  0  0  0  0
    2.1059   -0.6346    2.2723 C   0  0  0  0  0  0  0  0  0  0  0  0
    0.9944   -0.9350    1.4778 C   0  0  0  0  0  0  0  0  0  0  0  0
   -0.2747   -1.1196    1.9702 O   0  0  0  0  0  0  0  0  0  0  0  0
   -0.5178   -0.7260    3.3132 C   0  0  0  0  0  0  0  0  0  0  0  0
    1.1781   -1.1459    0.0946 C   0  0  0  0  0  0  0  0  0  0  0  0
    0.0654   -1.4239   -0.7756 N   0  0  0  0  0  0  0  0  0  0  0  0
    0.0945   -2.6512   -1.4668 C   0  0  0  0  0  0  0  0  0  0  0  0
    1.0218   -3.4605   -1.4275 O   0  0  0  0  0  0  0  0  0  0  0  0
   -1.1146   -2.9895   -2.2748 C   0  0  0  0  0  0  0  0  0  0  0  0
   -1.1649   -4.2263   -2.9719 C   0  0  0  0  0  0  0  0  0  0  0  0
   -1.2690   -5.2180   -3.5665 N   0  0  0  0  0  0  0  0  0  0  0  0
   -2.1394   -2.1280   -2.3186 C   0  0  0  0  0  0  0  0  0  0  0  0
   -2.0812   -0.8646   -1.6241 C   0  0  0  0  0  0  0  0  0  0  0  0
   -3.2041    0.1054   -1.7210 C   0  0  0  0  0  0  0  0  0  0  0  0
   -4.2049   -0.1913   -2.3771 O   0  0  0  0  0  0  0  0  0  0  0  0
   -3.0335    1.3063   -1.0500 N   0  0  0  0  0  0  0  0  0  0  0  0
   -4.0468    2.2562   -1.0970 C   0  0  0  0  0  0  0  0  0  0  0  0
   -3.9344    3.4378   -0.4815 C   0  0  0  0  0  0  0  0  0  0  0  0
   -2.7381    3.7541    0.2491 C   0  0  0  0  0  0  0  0  0  0  0  0
   -1.7241    2.8787    0.3313 C   0  0  0  0  0  0  0  0  0  0  0  0
   -0.4531    3.1531    1.0721 C   0  0  0  0  0  0  0  0  0  0  0  0
   -1.8566    1.5464   -0.3551 C   0  0  0  0  0  0  0  0  0  0  0  0
   -0.8865    0.6927   -0.2756 N   0  0  0  0  0  0  0  0  0  0  0  0
   -1.0123   -0.5273   -0.8865 C   0  0  0  0  0  0  0  0  0  0  0  0
    2.4714   -1.0865   -0.4494 C   0  0  0  0  0  0  0  0  0  0  0  0
    6.8016   -0.5765   -0.2012 H   0  0  0  0  0  0  0  0  0  0  0  0
    5.9275    0.4470    0.9446 H   0  0  0  0  0  0  0  0  0  0  0  0
    6.0581   -1.3352    1.2121 H   0  0  0  0  0  0  0  0  0  0  0  0
    4.2164   -0.3173    2.3685 H   0  0  0  0  0  0  0  0  0  0  0  0
    2.0164   -0.4778    3.3420 H   0  0  0  0  0  0  0  0  0  0  0  0
    0.0018   -1.3866    4.0146 H   0  0  0  0  0  0  0  0  0  0  0  0
   -1.5917   -0.8227    3.4999 H   0  0  0  0  0  0  0  0  0  0  0  0
   -0.2455    0.3216    3.4789 H   0  0  0  0  0  0  0  0  0  0  0  0
   -3.0371   -2.3512   -2.8925 H   0  0  0  0  0  0  0  0  0  0  0  0
   -4.9421    2.0001   -1.6588 H   0  0  0  0  0  0  0  0  0  0  0  0
   -4.7318    4.1728   -0.5252 H   0  0  0  0  0  0  0  0  0  0  0  0
   -2.6838    4.7273    0.7283 H   0  0  0  0  0  0  0  0  0  0  0  0
   -0.4549    4.1502    1.5251 H   0  0  0  0  0  0  0  0  0  0  0  0
    0.4067    3.0996    0.3962 H   0  0  0  0  0  0  0  0  0  0  0  0
   -0.3117    2.4253    1.8775 H   0  0  0  0  0  0  0  0  0  0  0  0
    2.6252   -1.2605   -1.5117 H   0  0  0  0  0  0  0  0  0  0  0  0
  1  2  1  0
  2  3  1  0
  3  4  2  0
  4  5  1  0
  5  6  2  0
  6  7  1  0
  7  8  1  0
  6  9  1  0
  9 10  1  0
 10 11  1  0
 11 12  2  0
 11 13  1  0
 13 14  1  0
 14 15  3  0
 13 16  2  0
 16 17  1  0
 17 18  1  0
 18 19  2  0
 18 20  1  0
 20 21  1  0
 21 22  2  0
 22 23  1  0
 23 24  2  0
 24 25  1  0
 24 26  1  0
 26 27  2  0
 27 28  1  0
  9 29  2  0
 29  3  1  0
 28 10  1  0
 28 17  2  0
 26 20  1  0
  1 30  1  0
  1 31  1  0
  1 32  1  0
  4 33  1  0
  5 34  1  0
  8 35  1  0
  8 36  1  0
  8 37  1  0
 16 38  1  0
 21 39  1  0
 22 40  1  0
 23 41  1  0
 25 42  1  0
 25 43  1  0
 25 44  1  0
 29 45  1  0
M  END
$$$$
