
     RDKit          3D

 47 50  0  0  0  0  0  0  0  0999 V2000
    5.4569   -1.2054   -3.2960 C   0  0  0  0  0  0  0  0  0  0  0  0
    4.1525   -0.9774   -2.7779 O   0  0  0  0  0  0  0  0  0  0  0  0
    4.0581   -0.6440   -1.4536 C   0  0  0  0  0  0  0  0  0  0  0  0
    5.1254   -0.4997   -0.5699 C   0  0  0  0  0  0  0  0  0  0  0  0
    4.8820   -0.1473    0.7570 C   0  0  0  0  0  0  0  0  0  0  0  0
    3.5705    0.0454    1.2023 C   0  0  0  0  0  0  0  0  0  0  0  0
    3.4054    0.3800    2.5250 O   0  0  0  0  0  0  0  0  0  0  0  0
    3.2486   -0.8090    3.3040 C   0  0  0  0  0  0  0  0  0  0  0  0
    2.4664   -0.0684    0.3327 C   0  0  0  0  0  0  0  0  0  0  0  0
    1.1439    0.1781    0.7606 N   0  0  0  0  0  0  0  0  0  0  0  0
    0.9194    1.4293    1.4973 C   0  0  0  0  0  0  0  0  0  0  0  0
   -0.5660    1.6179    1.2749 C   0  0  0  0  0  0  0  0  0  0  0  0
   -1.2288    2.5521    1.7047 O   0  0  0  0  0  0  0  0  0  0  0  0
   -1.1016    0.5068    0.4564 C   0  0  0  0  0  0  0  0  0  0  0  0
   -2.4415    0.2322    0.1118 C   0  0  0  0  0  0  0  0  0  0  0  0
   -3.0322   -0.9539    0.0792 N   0  0  0  0  0  0  0  0  0  0  0  0
   -4.3382   -0.7243   -0.2613 C   0  0  0  0  0  0  0  0  0  0  0  0
   -5.3973   -1.6339   -0.3948 C   0  0  0  0  0  0  0  0  0  0  0  0
   -6.6608   -1.1496   -0.7512 C   0  0  0  0  0  0  0  0  0  0  0  0
   -6.8638    0.2130   -0.9732 C   0  0  0  0  0  0  0  0  0  0  0  0
   -5.8147    1.1317   -0.8558 C   0  0  0  0  0  0  0  0  0  0  0  0
   -4.5588    0.6262   -0.4964 C   0  0  0  0  0  0  0  0  0  0  0  0
   -3.3220    1.2111   -0.3112 N   0  0  0  0  0  0  0  0  0  0  0  0
   -3.0320    2.5923   -0.6310 C   0  0  0  0  0  0  0  0  0  0  0  0
   -0.0426   -0.2913    0.1935 C   0  0  0  0  0  0  0  0  0  0  0  0
   -0.1253   -1.4791   -0.5003 N   0  0  0  0  0  0  0  0  0  0  0  0
    2.7494   -0.4290   -0.9978 C   0  0  0  0  0  0  0  0  0  0  0  0
    6.0732   -0.3021   -3.2268 H   0  0  0  0  0  0  0  0  0  0  0  0
    5.9377   -2.0519   -2.7965 H   0  0  0  0  0  0  0  0  0  0  0  0
    5.3554   -1.4563   -4.3556 H   0  0  0  0  0  0  0  0  0  0  0  0
    6.1535   -0.6484   -0.8799 H   0  0  0  0  0  0  0  0  0  0  0  0
    5.7122   -0.0286    1.4483 H   0  0  0  0  0  0  0  0  0  0  0  0
    3.1087   -0.5072    4.3459 H   0  0  0  0  0  0  0  0  0  0  0  0
    4.1443   -1.4366    3.2517 H   0  0  0  0  0  0  0  0  0  0  0  0
    2.3631   -1.3774    2.9943 H   0  0  0  0  0  0  0  0  0  0  0  0
    1.1024    1.3180    2.5691 H   0  0  0  0  0  0  0  0  0  0  0  0
    1.4597    2.2771    1.0640 H   0  0  0  0  0  0  0  0  0  0  0  0
   -5.2305   -2.6912   -0.2226 H   0  0  0  0  0  0  0  0  0  0  0  0
   -7.4907   -1.8435   -0.8539 H   0  0  0  0  0  0  0  0  0  0  0  0
   -7.8551    0.5679   -1.2464 H   0  0  0  0  0  0  0  0  0  0  0  0
   -5.9799    2.1891   -1.0324 H   0  0  0  0  0  0  0  0  0  0  0  0
   -3.6676    2.9082   -1.4641 H   0  0  0  0  0  0  0  0  0  0  0  0
   -3.2384    3.2048    0.2490 H   0  0  0  0  0  0  0  0  0  0  0  0
   -1.9917    2.6902   -0.9470 H   0  0  0  0  0  0  0  0  0  0  0  0
   -1.0843   -1.8412   -0.5028 H   0  0  0  0  0  0  0  0  0  0  0  0
    0.5355   -2.1574   -0.1330 H   0  0  0  0  0  0  0  0  0  0  0  0
    1.9396   -0.5172   -1.7204 H   0  0  0  0  0  0  0  0  0  0  0  0
  1  2  1  0
  2  3  1  0
  3  4  2  0
  4  5  1  0
  5  6  2  0
  6  7  1  0
  7  8  1  0
  6  9  1  0
  9 10  1  0
 10 11  1  0
 11 12  1  0
 12 13  2  0
 12 14  1  0
 14 15  1  0
 15 16  2  0
 16 17  1  0
 17 18  2  0
 18 19  1  0
 19 20  2  0
 20 21  1  0
 21 22  2  0
 22 23  1  0
 23 24  1  0
 14 25  2  0
 25 26  1  0
  9 27  2  0
 27  3  1  0
 25 10  1  0
 23 15  1  0
 22 17  1  0
  1 28  1  0
  1 29  1  0
  1 30  1  0
  4 31  1  0
  5 32  1  0
  8 33  1  0
  8 34  1  0
  8 35  1  0
 11 36  1  0
 11 37  1  0
 18 38  1  0
 19 39  1  0
 20 40  1  0
 21 41  1  0
 24 42  1  0
 24 43  1  0
 24 44  1  0
 26 45  1  0
 26 46  1  0
 27 47  1  0
M  END
$$$$
