
     RDKit          3D

 47 50  0  0  0  0  0  0  0  0999 V2000
    0.8016    1.5866   -0.8532 C   0  0  0  0  0  0  0  0  0  0  0  0
    1.3210    0.2295   -0.5072 C   0  0  0  0  0  0  0  0  0  0  0  0
    0.5207   -0.7262   -0.1412 N   0  0  0  0  0  0  0  0  0  0  0  0
    1.0587   -1.9707    0.1723 N   0  0  0  0  0  0  0  0  0  0  0  0
    0.1011   -2.9974    0.5737 C   0  0  0  0  0  0  0  0  0  0  0  0
   -0.1070   -3.0528    2.0904 C   0  0  0  0  0  0  0  0  0  0  0  0
   -0.7236   -1.7817    2.6745 C   0  0  0  0  0  0  0  0  0  0  0  0
   -2.1210   -1.5145    2.1480 C   0  0  0  0  0  0  0  0  0  0  0  0
   -2.8514   -2.3986    1.7124 O   0  0  0  0  0  0  0  0  0  0  0  0
   -2.5029   -0.1968    2.2634 N   0  0  0  0  0  0  0  0  0  0  0  0
   -3.7540    0.2789    1.7178 C   0  0  0  0  0  0  0  0  0  0  0  0
   -3.5390    0.9749    0.3978 C   0  0  0  0  0  0  0  0  0  0  0  0
   -3.2894    0.2267   -0.7622 C   0  0  0  0  0  0  0  0  0  0  0  0
   -3.0890    0.8630   -1.9880 C   0  0  0  0  0  0  0  0  0  0  0  0
   -3.1312    2.2536   -2.0668 C   0  0  0  0  0  0  0  0  0  0  0  0
   -3.3688    3.0087   -0.9193 C   0  0  0  0  0  0  0  0  0  0  0  0
   -3.5691    2.3737    0.3083 C   0  0  0  0  0  0  0  0  0  0  0  0
    2.4325   -2.2655    0.1668 C   0  0  0  0  0  0  0  0  0  0  0  0
    2.8917   -3.3566    0.4938 O   0  0  0  0  0  0  0  0  0  0  0  0
    3.2659   -1.1663   -0.2564 C   0  0  0  0  0  0  0  0  0  0  0  0
    4.6362   -1.1033   -0.3972 C   0  0  0  0  0  0  0  0  0  0  0  0
    4.9091    0.2153   -0.8472 C   0  0  0  0  0  0  0  0  0  0  0  0
    6.2821    1.1766   -1.2810 S   0  0  0  0  0  0  0  0  0  0  0  0
    5.2425    2.4975   -1.6234 C   0  0  0  0  0  0  0  0  0  0  0  0
    3.9044    2.2355   -1.4187 C   0  0  0  0  0  0  0  0  0  0  0  0
    3.7248    0.8953   -0.9614 C   0  0  0  0  0  0  0  0  0  0  0  0
    2.6974    0.0403   -0.5876 N   0  0  0  0  0  0  0  0  0  0  0  0
    1.0046    1.8139   -1.9030 H   0  0  0  0  0  0  0  0  0  0  0  0
    1.2502    2.3440   -0.2050 H   0  0  0  0  0  0  0  0  0  0  0  0
   -0.2804    1.6170   -0.7011 H   0  0  0  0  0  0  0  0  0  0  0  0
   -0.8399   -2.8217    0.0412 H   0  0  0  0  0  0  0  0  0  0  0  0
    0.4765   -3.9704    0.2351 H   0  0  0  0  0  0  0  0  0  0  0  0
   -0.7485   -3.9116    2.3229 H   0  0  0  0  0  0  0  0  0  0  0  0
    0.8544   -3.2332    2.5864 H   0  0  0  0  0  0  0  0  0  0  0  0
   -0.0762   -0.9188    2.4880 H   0  0  0  0  0  0  0  0  0  0  0  0
   -0.8068   -1.8925    3.7624 H   0  0  0  0  0  0  0  0  0  0  0  0
   -1.7872    0.4941    2.4395 H   0  0  0  0  0  0  0  0  0  0  0  0
   -4.4694   -0.5423    1.5976 H   0  0  0  0  0  0  0  0  0  0  0  0
   -4.1779    0.9736    2.4512 H   0  0  0  0  0  0  0  0  0  0  0  0
   -3.2500   -0.8608   -0.7111 H   0  0  0  0  0  0  0  0  0  0  0  0
   -2.9011    0.2702   -2.8794 H   0  0  0  0  0  0  0  0  0  0  0  0
   -2.9808    2.7478   -3.0228 H   0  0  0  0  0  0  0  0  0  0  0  0
   -3.4039    4.0933   -0.9817 H   0  0  0  0  0  0  0  0  0  0  0  0
   -3.7576    2.9785    1.1924 H   0  0  0  0  0  0  0  0  0  0  0  0
    5.3422   -1.9010   -0.2048 H   0  0  0  0  0  0  0  0  0  0  0  0
    5.6798    3.4253   -1.9679 H   0  0  0  0  0  0  0  0  0  0  0  0
    3.1287    2.9689   -1.5932 H   0  0  0  0  0  0  0  0  0  0  0  0
  1  2  1  0
  2  3  2  0
  3  4  1  0
  4  5  1  0
  5  6  1  0
  6  7  1  0
  7  8  1  0
  8  9  2  0
  8 10  1  0
 10 11  1  0
 11 12  1  0
 12 13  2  0
 13 14  1  0
 14 15  2  0
 15 16  1  0
 16 17  2  0
  4 18  1  0
 18 19  2  0
 18 20  1  0
 20 21  2  0
 21 22  1  0
 22 23  1  0
 23 24  1  0
 24 25  2  0
 25 26  1  0
 26 27  1  0
 27  2  1  0
 17 12  1  0
 27 20  1  0
 26 22  2  0
  1 28  1  0
  1 29  1  0
  1 30  1  0
  5 31  1  0
  5 32  1  0
  6 33  1  0
  6 34  1  0
  7 35  1  0
  7 36  1  0
 10 37  1  0
 11 38  1  0
 11 39  1  0
 13 40  1  0
 14 41  1  0
 15 42  1  0
 16 43  1  0
 17 44  1  0
 21 45  1  0
 24 46  1  0
 25 47  1  0
M  END
$$$$
