
     RDKit          3D

 47 48  0  0  0  0  0  0  0  0999 V2000
   -4.0910   -0.3921    3.1470 C   0  0  0  0  0  0  0  0  0  0  0  0
   -3.8281    0.3372    1.8332 C   0  0  0  0  0  0  0  0  0  0  0  0
   -3.2637   -0.5860    0.7309 C   0  0  1  0  0  0  0  0  0  0  0  0
   -4.2953   -1.6401    0.3047 C   0  0  0  0  0  0  0  0  0  0  0  0
   -2.7106    0.1752   -0.5113 C   0  0  1  0  0  0  0  0  0  0  0  0
   -3.7347    1.0743   -1.2410 C   0  0  0  0  0  0  0  0  0  0  0  0
   -4.0448    2.2417   -0.4792 O   0  0  0  0  0  0  0  0  0  0  0  0
   -1.5143    0.9482   -0.1472 N   0  0  0  0  0  0  0  0  0  0  0  0
   -0.5758    1.3224   -1.0857 C   0  0  0  0  0  0  0  0  0  0  0  0
   -0.6960    1.1092   -2.2880 O   0  0  0  0  0  0  0  0  0  0  0  0
    0.6440    2.0184   -0.5050 C   0  0  0  0  0  0  0  0  0  0  0  0
    1.7002    0.9989   -0.1526 C   0  0  0  0  0  0  0  0  0  0  0  0
    2.7730    0.6830   -0.9115 C   0  0  0  0  0  0  0  0  0  0  0  0
    3.0211    1.2471   -2.2874 C   0  0  0  0  0  0  0  0  0  0  0  0
    3.7600   -0.2817   -0.3848 C   0  0  0  0  0  0  0  0  0  0  0  0
    4.9250   -0.6594   -1.0702 C   0  0  0  0  0  0  0  0  0  0  0  0
    5.8284   -1.5703   -0.5077 C   0  0  0  0  0  0  0  0  0  0  0  0
    5.5798   -2.1104    0.7478 C   0  0  0  0  0  0  0  0  0  0  0  0
    6.4906   -2.9858    1.2573 O   0  0  0  0  0  0  0  0  0  0  0  0
    4.4360   -1.7608    1.4495 C   0  0  0  0  0  0  0  0  0  0  0  0
    3.5449   -0.8529    0.8699 C   0  0  0  0  0  0  0  0  0  0  0  0
    2.4050   -0.5421    1.6285 O   0  0  0  0  0  0  0  0  0  0  0  0
    1.4621    0.3540    1.1682 C   0  0  0  0  0  0  0  0  0  0  0  0
    0.4535    0.6039    1.8252 O   0  0  0  0  0  0  0  0  0  0  0  0
   -3.2014   -0.9368    3.4801 H   0  0  0  0  0  0  0  0  0  0  0  0
   -4.3598    0.3278    3.9303 H   0  0  0  0  0  0  0  0  0  0  0  0
   -4.9196   -1.1032    3.0542 H   0  0  0  0  0  0  0  0  0  0  0  0
   -3.1185    1.1482    2.0383 H   0  0  0  0  0  0  0  0  0  0  0  0
   -4.7641    0.8035    1.5054 H   0  0  0  0  0  0  0  0  0  0  0  0
   -2.4155   -1.1335    1.1658 H   0  0  0  0  0  0  0  0  0  0  0  0
   -5.2403   -1.1788    0.0011 H   0  0  0  0  0  0  0  0  0  0  0  0
   -4.5098   -2.3359    1.1241 H   0  0  0  0  0  0  0  0  0  0  0  0
   -3.9231   -2.2376   -0.5370 H   0  0  0  0  0  0  0  0  0  0  0  0
   -2.3781   -0.5830   -1.2347 H   0  0  0  0  0  0  0  0  0  0  0  0
   -4.6659    0.5398   -1.4463 H   0  0  0  0  0  0  0  0  0  0  0  0
   -3.3359    1.4134   -2.2032 H   0  0  0  0  0  0  0  0  0  0  0  0
   -3.1826    2.6276   -0.2382 H   0  0  0  0  0  0  0  0  0  0  0  0
   -1.1937    0.9002    0.8226 H   0  0  0  0  0  0  0  0  0  0  0  0
    0.3535    2.6103    0.3724 H   0  0  0  0  0  0  0  0  0  0  0  0
    0.9929    2.7639   -1.2257 H   0  0  0  0  0  0  0  0  0  0  0  0
    3.1471    0.4390   -3.0178 H   0  0  0  0  0  0  0  0  0  0  0  0
    2.2004    1.8619   -2.6651 H   0  0  0  0  0  0  0  0  0  0  0  0
    3.9229    1.8687   -2.2937 H   0  0  0  0  0  0  0  0  0  0  0  0
    5.1637   -0.2559   -2.0514 H   0  0  0  0  0  0  0  0  0  0  0  0
    6.7237   -1.8552   -1.0530 H   0  0  0  0  0  0  0  0  0  0  0  0
    6.2141   -3.2417    2.1538 H   0  0  0  0  0  0  0  0  0  0  0  0
    4.2207   -2.1746    2.4289 H   0  0  0  0  0  0  0  0  0  0  0  0
  1  2  1  0
  2  3  1  0
  3  4  1  0
  3  5  1  0
  5  6  1  0
  6  7  1  0
  5  8  1  0
  8  9  1  0
  9 10  2  0
  9 11  1  0
 11 12  1  0
 12 13  2  0
 13 14  1  0
 13 15  1  0
 15 16  2  0
 16 17  1  0
 17 18  2  0
 18 19  1  0
 18 20  1  0
 20 21  2  0
 21 22  1  0
 22 23  1  0
 23 24  2  0
 23 12  1  0
 21 15  1  0
  1 25  1  0
  1 26  1  0
  1 27  1  0
  2 28  1  0
  2 29  1  0
  3 30  1  1
  4 31  1  0
  4 32  1  0
  4 33  1  0
  5 34  1  6
  6 35  1  0
  6 36  1  0
  7 37  1  0
  8 38  1  0
 11 39  1  0
 11 40  1  0
 14 41  1  0
 14 42  1  0
 14 43  1  0
 16 44  1  0
 17 45  1  0
 19 46  1  0
 20 47  1  0
M  END
$$$$
