
     RDKit          3D

 46 49  0  0  0  0  0  0  0  0999 V2000
    5.4570    1.2395    3.2945 C   0  0  0  0  0  0  0  0  0  0  0  0
    5.0006    0.4157    2.1295 C   0  0  0  0  0  0  0  0  0  0  0  0
    5.7743   -0.7577    1.7926 C   0  0  0  0  0  0  0  0  0  0  0  0
    5.4257   -1.5347    0.7607 C   0  0  0  0  0  0  0  0  0  0  0  0
    4.2292   -1.1956   -0.0555 C   0  0  0  0  0  0  0  0  0  0  0  0
    3.9149   -1.9656   -1.0523 N   0  0  0  0  0  0  0  0  0  0  0  0
    2.8149   -1.6145   -1.7856 C   0  0  0  0  0  0  0  0  0  0  0  0
    2.0208   -0.5687   -1.5314 C   0  0  0  0  0  0  0  0  0  0  0  0
    0.8773   -0.3395   -2.4390 C   0  0  0  0  0  0  0  0  0  0  0  0
    1.0897   -0.2035   -3.6443 O   0  0  0  0  0  0  0  0  0  0  0  0
   -0.3979   -0.3389   -1.9042 N   0  0  0  0  0  0  0  0  0  0  0  0
   -1.5278   -0.0521   -2.7972 C   0  0  0  0  0  0  0  0  0  0  0  0
   -2.7484    0.5008   -2.0439 C   0  0  0  0  0  0  0  0  0  0  0  0
   -3.2022   -0.4400   -0.9917 N   0  0  0  0  0  0  0  0  0  0  0  0
   -4.1579    0.1438   -0.1381 C   0  0  0  0  0  0  0  0  0  0  0  0
   -3.7777    0.8045    1.0433 C   0  0  0  0  0  0  0  0  0  0  0  0
   -4.7246    1.4073    1.8778 C   0  0  0  0  0  0  0  0  0  0  0  0
   -6.0756    1.3665    1.5470 C   0  0  0  0  0  0  0  0  0  0  0  0
   -6.4811    0.7249    0.3791 C   0  0  0  0  0  0  0  0  0  0  0  0
   -5.5340    0.1224   -0.4571 C   0  0  0  0  0  0  0  0  0  0  0  0
   -6.1211   -0.6757   -1.8790 Cl  0  0  0  0  0  0  0  0  0  0  0  0
   -2.1494   -1.2697   -0.3703 C   0  0  0  0  0  0  0  0  0  0  0  0
   -0.7450   -0.6542   -0.5093 C   0  0  0  0  0  0  0  0  0  0  0  0
    2.3761    0.3122   -0.4023 C   0  0  0  0  0  0  0  0  0  0  0  0
    1.6819    1.2936   -0.1343 O   0  0  0  0  0  0  0  0  0  0  0  0
    3.5143   -0.0602    0.3121 N   0  0  0  0  0  0  0  0  0  0  0  0
    3.9194    0.7180    1.3934 C   0  0  0  0  0  0  0  0  0  0  0  0
    5.4588    0.6410    4.2119 H   0  0  0  0  0  0  0  0  0  0  0  0
    6.4706    1.6181    3.1247 H   0  0  0  0  0  0  0  0  0  0  0  0
    4.8045    2.1029    3.4633 H   0  0  0  0  0  0  0  0  0  0  0  0
    6.6486   -1.0002    2.3894 H   0  0  0  0  0  0  0  0  0  0  0  0
    5.9847   -2.4184    0.4793 H   0  0  0  0  0  0  0  0  0  0  0  0
    2.6025   -2.2658   -2.6325 H   0  0  0  0  0  0  0  0  0  0  0  0
   -1.2162    0.6582   -3.5709 H   0  0  0  0  0  0  0  0  0  0  0  0
   -1.7858   -0.9946   -3.2953 H   0  0  0  0  0  0  0  0  0  0  0  0
   -2.4755    1.4663   -1.5965 H   0  0  0  0  0  0  0  0  0  0  0  0
   -3.5571    0.6807   -2.7611 H   0  0  0  0  0  0  0  0  0  0  0  0
   -2.7297    0.8771    1.3200 H   0  0  0  0  0  0  0  0  0  0  0  0
   -4.4021    1.9146    2.7839 H   0  0  0  0  0  0  0  0  0  0  0  0
   -6.8117    1.8351    2.1951 H   0  0  0  0  0  0  0  0  0  0  0  0
   -7.5367    0.6929    0.1227 H   0  0  0  0  0  0  0  0  0  0  0  0
   -2.1568   -2.2361   -0.8902 H   0  0  0  0  0  0  0  0  0  0  0  0
   -2.3609   -1.4922    0.6826 H   0  0  0  0  0  0  0  0  0  0  0  0
   -0.0045   -1.3385   -0.0846 H   0  0  0  0  0  0  0  0  0  0  0  0
   -0.6995    0.2867    0.0493 H   0  0  0  0  0  0  0  0  0  0  0  0
    3.3133    1.5937    1.6146 H   0  0  0  0  0  0  0  0  0  0  0  0
  1  2  1  0
  2  3  1  0
  3  4  2  0
  4  5  1  0
  5  6  2  0
  6  7  1  0
  7  8  2  0
  8  9  1  0
  9 10  2  0
  9 11  1  0
 11 12  1  0
 12 13  1  0
 13 14  1  0
 14 15  1  0
 15 16  2  0
 16 17  1  0
 17 18  2  0
 18 19  1  0
 19 20  2  0
 20 21  1  0
 14 22  1  0
 22 23  1  0
  8 24  1  0
 24 25  2  0
 24 26  1  0
 26 27  1  0
 27  2  2  0
 26  5  1  0
 23 11  1  0
 20 15  1  0
  1 28  1  0
  1 29  1  0
  1 30  1  0
  3 31  1  0
  4 32  1  0
  7 33  1  0
 12 34  1  0
 12 35  1  0
 13 36  1  0
 13 37  1  0
 16 38  1  0
 17 39  1  0
 18 40  1  0
 19 41  1  0
 22 42  1  0
 22 43  1  0
 23 44  1  0
 23 45  1  0
 27 46  1  0
M  END
$$$$
