
     RDKit          3D

 59 62  0  0  0  0  0  0  0  0999 V2000
   -7.3405   -4.0264   -0.0109 C   0  0  0  0  0  0  0  0  0  0  0  0
   -7.3289   -2.6224    0.2175 O   0  0  0  0  0  0  0  0  0  0  0  0
   -6.1054   -2.0245    0.3157 C   0  0  0  0  0  0  0  0  0  0  0  0
   -4.8706   -2.6503    0.2103 C   0  0  0  0  0  0  0  0  0  0  0  0
   -3.6872   -1.9045    0.3348 C   0  0  0  0  0  0  0  0  0  0  0  0
   -3.6931   -0.5185    0.5758 C   0  0  0  0  0  0  0  0  0  0  0  0
   -2.4405    0.2130    0.6617 N   0  0  0  0  0  0  0  0  0  0  0  0
   -1.2663   -0.4815    1.0399 C   0  0  0  0  0  0  0  0  0  0  0  0
   -1.2278   -1.5190    1.6979 O   0  0  0  0  0  0  0  0  0  0  0  0
    0.0451    0.0566    0.6054 C   0  0  0  0  0  0  0  0  0  0  0  0
    0.2821    0.3281   -0.7498 C   0  0  0  0  0  0  0  0  0  0  0  0
    1.5287    0.8119   -1.1501 C   0  0  0  0  0  0  0  0  0  0  0  0
    2.5305    1.0033   -0.1923 C   0  0  0  0  0  0  0  0  0  0  0  0
    4.1279    1.6130   -0.6806 S   0  0  0  0  0  6  0  0  0  0  0  0
    4.4283    2.7323    0.1858 O   0  0  0  0  0  0  0  0  0  0  0  0
    4.1414    1.7491   -2.1220 O   0  0  0  0  0  0  0  0  0  0  0  0
    5.1686    0.3193   -0.2783 N   0  0  0  0  0  0  0  0  0  0  0  0
    4.8906   -0.9704   -0.9707 C   0  0  0  0  0  0  0  0  0  0  0  0
    5.9830   -1.9837   -0.6514 C   0  0  0  0  0  0  0  0  0  0  0  0
    7.3412   -1.5232   -1.1762 C   0  0  0  0  0  0  0  0  0  0  0  0
    7.4302   -0.0040   -1.2951 C   0  0  0  0  0  0  0  0  0  0  0  0
    6.6139    0.6933   -0.2153 C   0  0  0  0  0  0  0  0  0  0  0  0
    2.3017    0.7203    1.1594 C   0  0  0  0  0  0  0  0  0  0  0  0
    1.0566    0.2333    1.5571 C   0  0  0  0  0  0  0  0  0  0  0  0
   -2.3959    1.6881    0.5865 C   0  0  0  0  0  0  0  0  0  0  0  0
   -3.0127    2.3356    1.7995 C   0  0  0  0  0  0  0  0  0  0  0  0
   -3.6546    3.4873    1.5631 C   0  0  0  0  0  0  0  0  0  0  0  0
   -3.6020    3.9003   -0.1204 S   0  0  0  0  0  6  0  0  0  0  0  0
   -2.5660    4.8887   -0.3343 O   0  0  0  0  0  0  0  0  0  0  0  0
   -4.9508    4.0787   -0.6131 O   0  0  0  0  0  0  0  0  0  0  0  0
   -2.9906    2.3135   -0.6748 C   0  0  0  0  0  0  0  0  0  0  0  0
   -4.9522    0.0899    0.6636 C   0  0  0  0  0  0  0  0  0  0  0  0
   -6.1371   -0.6519    0.5401 C   0  0  0  0  0  0  0  0  0  0  0  0
   -6.8766   -4.2726   -0.9723 H   0  0  0  0  0  0  0  0  0  0  0  0
   -8.3855   -4.3491   -0.0530 H   0  0  0  0  0  0  0  0  0  0  0  0
   -6.8582   -4.5654    0.8115 H   0  0  0  0  0  0  0  0  0  0  0  0
   -4.7802   -3.7165    0.0296 H   0  0  0  0  0  0  0  0  0  0  0  0
   -2.7550   -2.4523    0.2161 H   0  0  0  0  0  0  0  0  0  0  0  0
   -0.4908    0.1503   -1.4937 H   0  0  0  0  0  0  0  0  0  0  0  0
    1.7145    1.0284   -2.2002 H   0  0  0  0  0  0  0  0  0  0  0  0
    3.9353   -1.3701   -0.6154 H   0  0  0  0  0  0  0  0  0  0  0  0
    4.8198   -0.8229   -2.0542 H   0  0  0  0  0  0  0  0  0  0  0  0
    5.7342   -2.9619   -1.0777 H   0  0  0  0  0  0  0  0  0  0  0  0
    6.0446   -2.1205    0.4357 H   0  0  0  0  0  0  0  0  0  0  0  0
    7.5355   -1.9687   -2.1590 H   0  0  0  0  0  0  0  0  0  0  0  0
    8.1265   -1.8956   -0.5077 H   0  0  0  0  0  0  0  0  0  0  0  0
    8.4793    0.3082   -1.2401 H   0  0  0  0  0  0  0  0  0  0  0  0
    7.0634    0.3037   -2.2825 H   0  0  0  0  0  0  0  0  0  0  0  0
    6.7511    1.7755   -0.3108 H   0  0  0  0  0  0  0  0  0  0  0  0
    6.9852    0.4204    0.7799 H   0  0  0  0  0  0  0  0  0  0  0  0
    3.0910    0.8694    1.8941 H   0  0  0  0  0  0  0  0  0  0  0  0
    0.8747   -0.0098    2.6021 H   0  0  0  0  0  0  0  0  0  0  0  0
   -1.3521    2.0160    0.6340 H   0  0  0  0  0  0  0  0  0  0  0  0
   -2.9099    1.9091    2.7906 H   0  0  0  0  0  0  0  0  0  0  0  0
   -4.1487    4.1188    2.2837 H   0  0  0  0  0  0  0  0  0  0  0  0
   -2.2383    2.4693   -1.4529 H   0  0  0  0  0  0  0  0  0  0  0  0
   -3.8267    1.7587   -1.1043 H   0  0  0  0  0  0  0  0  0  0  0  0
   -5.0837    1.1473    0.8493 H   0  0  0  0  0  0  0  0  0  0  0  0
   -7.0966   -0.1451    0.6235 H   0  0  0  0  0  0  0  0  0  0  0  0
  1  2  1  0
  2  3  1  0
  3  4  2  0
  4  5  1  0
  5  6  2  0
  6  7  1  0
  7  8  1  0
  8  9  2  0
  8 10  1  0
 10 11  2  0
 11 12  1  0
 12 13  2  0
 13 14  1  0
 14 15  2  0
 14 16  2  0
 14 17  1  0
 17 18  1  0
 18 19  1  0
 19 20  1  0
 20 21  1  0
 21 22  1  0
 13 23  1  0
 23 24  2  0
  7 25  1  0
 25 26  1  0
 26 27  2  0
 27 28  1  0
 28 29  2  0
 28 30  2  0
 28 31  1  0
  6 32  1  0
 32 33  2  0
 33  3  1  0
 24 10  1  0
 31 25  1  0
 22 17  1  0
  1 34  1  0
  1 35  1  0
  1 36  1  0
  4 37  1  0
  5 38  1  0
 11 39  1  0
 12 40  1  0
 18 41  1  0
 18 42  1  0
 19 43  1  0
 19 44  1  0
 20 45  1  0
 20 46  1  0
 21 47  1  0
 21 48  1  0
 22 49  1  0
 22 50  1  0
 23 51  1  0
 24 52  1  0
 25 53  1  0
 26 54  1  0
 27 55  1  0
 31 56  1  0
 31 57  1  0
 32 58  1  0
 33 59  1  0
M  END
$$$$
