
     RDKit          3D

 40 42  0  0  0  0  0  0  0  0999 V2000
    6.9419    0.3350    0.2196 C   0  0  0  0  0  0  0  0  0  0  0  0
    5.4490    0.2398    0.1394 C   0  0  0  0  0  0  0  0  0  0  0  0
    4.6818    1.3886    0.5650 C   0  0  0  0  0  0  0  0  0  0  0  0
    3.3442    1.3634    0.5164 C   0  0  0  0  0  0  0  0  0  0  0  0
    2.6454    0.2499    0.0637 N   0  0  0  0  0  0  0  0  0  0  0  0
    1.2554    0.2856    0.0293 C   0  0  0  0  0  0  0  0  0  0  0  0
    0.5793    1.2633    0.3631 O   0  0  0  0  0  0  0  0  0  0  0  0
    0.5783   -0.9400   -0.4532 C   0  0  0  0  0  0  0  0  0  0  0  0
   -0.9045   -1.1174   -0.5491 C   0  0  0  0  0  0  0  0  0  0  0  0
   -1.3638   -2.0810   -1.1552 O   0  0  0  0  0  0  0  0  0  0  0  0
   -1.6401   -0.1085    0.0375 N   0  0  0  0  0  0  0  0  0  0  0  0
   -3.0510    0.0198    0.0856 C   0  0  0  0  0  0  0  0  0  0  0  0
   -3.5777    1.3349   -0.0052 C   0  0  0  0  0  0  0  0  0  0  0  0
   -2.6954    2.5498   -0.1483 C   0  0  0  0  0  0  0  0  0  0  0  0
   -4.9682    1.5352    0.0049 C   0  0  0  0  0  0  0  0  0  0  0  0
   -5.8381    0.4585    0.1098 C   0  0  0  0  0  0  0  0  0  0  0  0
   -5.3264   -0.8268    0.2434 C   0  0  0  0  0  0  0  0  0  0  0  0
   -3.9374   -1.0636    0.2692 C   0  0  0  0  0  0  0  0  0  0  0  0
   -3.5141   -2.4790    0.5569 C   0  0  0  0  0  0  0  0  0  0  0  0
    1.3680   -1.9539   -0.8322 C   0  0  0  0  0  0  0  0  0  0  0  0
    2.7360   -1.9575   -0.7983 N   0  0  0  0  0  0  0  0  0  0  0  0
    3.3216   -0.8860   -0.3617 C   0  0  0  0  0  0  0  0  0  0  0  0
    4.8096   -0.8525   -0.3057 C   0  0  0  0  0  0  0  0  0  0  0  0
    7.4274   -0.5844   -0.1251 H   0  0  0  0  0  0  0  0  0  0  0  0
    7.3094    1.1575   -0.4033 H   0  0  0  0  0  0  0  0  0  0  0  0
    7.2615    0.5115    1.2523 H   0  0  0  0  0  0  0  0  0  0  0  0
    5.2041    2.2711    0.9229 H   0  0  0  0  0  0  0  0  0  0  0  0
    2.7576    2.2222    0.8332 H   0  0  0  0  0  0  0  0  0  0  0  0
   -1.1145    0.7388    0.2479 H   0  0  0  0  0  0  0  0  0  0  0  0
   -3.2839    3.4628   -0.2898 H   0  0  0  0  0  0  0  0  0  0  0  0
   -2.0905    2.6866    0.7537 H   0  0  0  0  0  0  0  0  0  0  0  0
   -2.0427    2.4485   -1.0214 H   0  0  0  0  0  0  0  0  0  0  0  0
   -5.3822    2.5374   -0.0819 H   0  0  0  0  0  0  0  0  0  0  0  0
   -6.9125    0.6201    0.1048 H   0  0  0  0  0  0  0  0  0  0  0  0
   -6.0215   -1.6570    0.3563 H   0  0  0  0  0  0  0  0  0  0  0  0
   -4.2365   -2.9668    1.2225 H   0  0  0  0  0  0  0  0  0  0  0  0
   -3.4671   -3.0625   -0.3667 H   0  0  0  0  0  0  0  0  0  0  0  0
   -2.5575   -2.5183    1.0857 H   0  0  0  0  0  0  0  0  0  0  0  0
    0.9289   -2.8803   -1.2016 H   0  0  0  0  0  0  0  0  0  0  0  0
    5.3265   -1.7446   -0.6392 H   0  0  0  0  0  0  0  0  0  0  0  0
  1  2  1  0
  2  3  1  0
  3  4  2  0
  4  5  1  0
  5  6  1  0
  6  7  2  0
  6  8  1  0
  8  9  1  0
  9 10  2  0
  9 11  1  0
 11 12  1  0
 12 13  2  0
 13 14  1  0
 13 15  1  0
 15 16  2  0
 16 17  1  0
 17 18  2  0
 18 19  1  0
  8 20  2  0
 20 21  1  0
 21 22  2  0
 22 23  1  0
 23  2  2  0
 22  5  1  0
 18 12  1  0
  1 24  1  0
  1 25  1  0
  1 26  1  0
  3 27  1  0
  4 28  1  0
 11 29  1  0
 14 30  1  0
 14 31  1  0
 14 32  1  0
 15 33  1  0
 16 34  1  0
 17 35  1  0
 19 36  1  0
 19 37  1  0
 19 38  1  0
 20 39  1  0
 23 40  1  0
M  END
$$$$
