
     RDKit          3D

 33 35  0  0  0  0  0  0  0  0999 V2000
    5.6711    1.8065    0.2467 C   0  0  0  0  0  0  0  0  0  0  0  0
    4.3729    1.0407    0.1759 C   0  0  0  0  0  0  0  0  0  0  0  0
    4.4664   -0.4536    0.0967 C   0  0  0  0  0  0  0  0  0  0  0  0
    3.3020   -1.1238    0.0352 C   0  0  0  0  0  0  0  0  0  0  0  0
    3.2174   -2.6159   -0.0472 C   0  0  0  0  0  0  0  0  0  0  0  0
    2.1075   -0.3957    0.0481 N   0  0  0  0  0  0  0  0  0  0  0  0
    0.8356   -0.8407   -0.0014 N   0  0  0  0  0  0  0  0  0  0  0  0
    0.1294    0.2838    0.0343 C   0  0  0  0  0  0  0  0  0  0  0  0
   -1.2296    0.4241    0.0120 N   0  0  0  0  0  0  0  0  0  0  0  0
   -2.1345   -0.6006   -0.1180 C   0  0  0  0  0  0  0  0  0  0  0  0
   -1.8894   -1.7892   -0.2861 O   0  0  0  0  0  0  0  0  0  0  0  0
   -3.5639   -0.1747   -0.0843 C   0  0  0  0  0  0  0  0  0  0  0  0
   -4.0021    0.8936    0.7109 C   0  0  0  0  0  0  0  0  0  0  0  0
   -5.3512    1.2568    0.7094 C   0  0  0  0  0  0  0  0  0  0  0  0
   -6.2649    0.5531   -0.0755 C   0  0  0  0  0  0  0  0  0  0  0  0
   -5.8367   -0.5215   -0.8541 C   0  0  0  0  0  0  0  0  0  0  0  0
   -4.4902   -0.8888   -0.8553 C   0  0  0  0  0  0  0  0  0  0  0  0
    0.8634    1.4289    0.1166 N   0  0  0  0  0  0  0  0  0  0  0  0
    2.1072    1.0023    0.1228 C   0  0  0  0  0  0  0  0  0  0  0  0
    3.2652    1.7224    0.1885 N   0  0  0  0  0  0  0  0  0  0  0  0
    6.5351    1.1376    0.2285 H   0  0  0  0  0  0  0  0  0  0  0  0
    5.7340    2.4883   -0.6065 H   0  0  0  0  0  0  0  0  0  0  0  0
    5.6951    2.3899    1.1718 H   0  0  0  0  0  0  0  0  0  0  0  0
    5.4376   -0.9301    0.0921 H   0  0  0  0  0  0  0  0  0  0  0  0
    4.2105   -3.0781   -0.0508 H   0  0  0  0  0  0  0  0  0  0  0  0
    2.7066   -2.9237   -0.9658 H   0  0  0  0  0  0  0  0  0  0  0  0
    2.6684   -3.0197    0.8101 H   0  0  0  0  0  0  0  0  0  0  0  0
   -1.5248    1.3871    0.0319 H   0  0  0  0  0  0  0  0  0  0  0  0
   -3.3171    1.4335    1.3586 H   0  0  0  0  0  0  0  0  0  0  0  0
   -5.6932    2.0824    1.3291 H   0  0  0  0  0  0  0  0  0  0  0  0
   -7.3151    0.8354   -0.0720 H   0  0  0  0  0  0  0  0  0  0  0  0
   -6.5507   -1.0774   -1.4568 H   0  0  0  0  0  0  0  0  0  0  0  0
   -4.1618   -1.7328   -1.4593 H   0  0  0  0  0  0  0  0  0  0  0  0
  1  2  1  0
  2  3  1  0
  3  4  2  0
  4  5  1  0
  4  6  1  0
  6  7  1  0
  7  8  2  0
  8  9  1  0
  9 10  1  0
 10 11  2  0
 10 12  1  0
 12 13  2  0
 13 14  1  0
 14 15  2  0
 15 16  1  0
 16 17  2  0
  8 18  1  0
 18 19  2  0
 19 20  1  0
 20  2  2  0
 19  6  1  0
 17 12  1  0
  1 21  1  0
  1 22  1  0
  1 23  1  0
  3 24  1  0
  5 25  1  0
  5 26  1  0
  5 27  1  0
  9 28  1  0
 13 29  1  0
 14 30  1  0
 15 31  1  0
 16 32  1  0
 17 33  1  0
M  END
$$$$
