
     RDKit          3D

 54 58  0  0  0  0  0  0  0  0999 V2000
    5.9816    0.3909   -3.6282 C   0  0  0  0  0  0  0  0  0  0  0  0
    6.7449   -0.2092   -2.5900 O   0  0  0  0  0  0  0  0  0  0  0  0
    6.1203   -0.3933   -1.3859 C   0  0  0  0  0  0  0  0  0  0  0  0
    6.9160   -0.9819   -0.4069 C   0  0  0  0  0  0  0  0  0  0  0  0
    6.3960   -1.2270    0.8581 C   0  0  0  0  0  0  0  0  0  0  0  0
    5.0725   -0.8818    1.1463 C   0  0  0  0  0  0  0  0  0  0  0  0
    4.2347   -0.2853    0.1895 C   0  0  0  0  0  0  0  0  0  0  0  0
    2.9226    0.0576    0.4859 N   0  0  0  0  0  0  0  0  0  0  0  0
    2.1866    1.0525   -0.3109 C   0  0  0  0  0  0  0  0  0  0  0  0
    1.0670    1.7193    0.5085 C   0  0  0  0  0  0  0  0  0  0  0  0
    0.1326    0.7615    1.1095 N   0  0  0  0  0  0  0  0  0  0  0  0
   -1.1671    1.1708    1.3623 C   0  0  0  0  0  0  0  0  0  0  0  0
   -1.5088    2.3406    1.1522 O   0  0  0  0  0  0  0  0  0  0  0  0
   -2.1723    0.1973    1.9458 C   0  0  0  0  0  0  0  0  0  0  0  0
   -2.6830   -0.7417    0.9665 N   0  0  0  0  0  0  0  0  0  0  0  0
   -2.0914   -1.9680    0.9132 N   0  0  0  0  0  0  0  0  0  0  0  0
   -2.8271   -2.6569    0.0404 C   0  0  0  0  0  0  0  0  0  0  0  0
   -3.8948   -1.8998   -0.4447 C   0  0  0  0  0  0  0  0  0  0  0  0
   -3.7878   -0.6629    0.1553 C   0  0  0  0  0  0  0  0  0  0  0  0
   -4.8015    0.3535   -0.0977 C   0  0  0  0  0  0  0  0  0  0  0  0
   -4.7170    1.6955    0.2731 C   0  0  0  0  0  0  0  0  0  0  0  0
   -5.7669    2.5786   -0.0066 C   0  0  0  0  0  0  0  0  0  0  0  0
   -6.9127    2.1312   -0.6605 C   0  0  0  0  0  0  0  0  0  0  0  0
   -7.0086    0.7990   -1.0528 C   0  0  0  0  0  0  0  0  0  0  0  0
   -5.9563   -0.0817   -0.7930 C   0  0  0  0  0  0  0  0  0  0  0  0
   -6.1625   -1.3783   -1.2238 O   0  0  0  0  0  0  0  0  0  0  0  0
   -4.9888   -2.2098   -1.3867 C   0  0  0  0  0  0  0  0  0  0  0  0
    0.6702   -0.5844    1.3533 C   0  0  0  0  0  0  0  0  0  0  0  0
    2.1945   -0.5969    1.5859 C   0  0  0  0  0  0  0  0  0  0  0  0
    4.7955   -0.0518   -1.0817 C   0  0  0  0  0  0  0  0  0  0  0  0
    6.6236    0.4724   -4.5106 H   0  0  0  0  0  0  0  0  0  0  0  0
    5.1233   -0.2332   -3.8983 H   0  0  0  0  0  0  0  0  0  0  0  0
    5.6655    1.4025   -3.3526 H   0  0  0  0  0  0  0  0  0  0  0  0
    7.9447   -1.2495   -0.6326 H   0  0  0  0  0  0  0  0  0  0  0  0
    7.0185   -1.6812    1.6238 H   0  0  0  0  0  0  0  0  0  0  0  0
    4.7152   -1.0690    2.1549 H   0  0  0  0  0  0  0  0  0  0  0  0
    1.7541    0.5572   -1.1888 H   0  0  0  0  0  0  0  0  0  0  0  0
    2.8557    1.8481   -0.6598 H   0  0  0  0  0  0  0  0  0  0  0  0
    0.5234    2.4272   -0.1268 H   0  0  0  0  0  0  0  0  0  0  0  0
    1.5034    2.2892    1.3382 H   0  0  0  0  0  0  0  0  0  0  0  0
   -1.7391   -0.3581    2.7828 H   0  0  0  0  0  0  0  0  0  0  0  0
   -3.0192    0.7474    2.3669 H   0  0  0  0  0  0  0  0  0  0  0  0
   -2.5557   -3.6800   -0.1864 H   0  0  0  0  0  0  0  0  0  0  0  0
   -3.8462    2.1022    0.7692 H   0  0  0  0  0  0  0  0  0  0  0  0
   -5.6840    3.6223    0.2886 H   0  0  0  0  0  0  0  0  0  0  0  0
   -7.7263    2.8206   -0.8696 H   0  0  0  0  0  0  0  0  0  0  0  0
   -7.8977    0.4455   -1.5673 H   0  0  0  0  0  0  0  0  0  0  0  0
   -5.3158   -3.2472   -1.2592 H   0  0  0  0  0  0  0  0  0  0  0  0
   -4.6425   -2.0962   -2.4205 H   0  0  0  0  0  0  0  0  0  0  0  0
    0.1764   -1.0416    2.2131 H   0  0  0  0  0  0  0  0  0  0  0  0
    0.4386   -1.1789    0.4623 H   0  0  0  0  0  0  0  0  0  0  0  0
    2.5009   -1.6446    1.6917 H   0  0  0  0  0  0  0  0  0  0  0  0
    2.4246   -0.0752    2.5228 H   0  0  0  0  0  0  0  0  0  0  0  0
    4.1701    0.3824   -1.8520 H   0  0  0  0  0  0  0  0  0  0  0  0
  1  2  1  0
  2  3  1  0
  3  4  2  0
  4  5  1  0
  5  6  2  0
  6  7  1  0
  7  8  1  0
  8  9  1  0
  9 10  1  0
 10 11  1  0
 11 12  1  0
 12 13  2  0
 12 14  1  0
 14 15  1  0
 15 16  1  0
 16 17  2  0
 17 18  1  0
 18 19  2  0
 19 20  1  0
 20 21  2  0
 21 22  1  0
 22 23  2  0
 23 24  1  0
 24 25  2  0
 25 26  1  0
 26 27  1  0
 11 28  1  0
 28 29  1  0
  7 30  2  0
 30  3  1  0
 29  8  1  0
 19 15  1  0
 25 20  1  0
 27 18  1  0
  1 31  1  0
  1 32  1  0
  1 33  1  0
  4 34  1  0
  5 35  1  0
  6 36  1  0
  9 37  1  0
  9 38  1  0
 10 39  1  0
 10 40  1  0
 14 41  1  0
 14 42  1  0
 17 43  1  0
 21 44  1  0
 22 45  1  0
 23 46  1  0
 24 47  1  0
 27 48  1  0
 27 49  1  0
 28 50  1  0
 28 51  1  0
 29 52  1  0
 29 53  1  0
 30 54  1  0
M  END
$$$$
