
     RDKit          3D

 41 44  0  0  0  0  0  0  0  0999 V2000
    0.2826    0.2428    1.8445 O   0  0  0  0  0  0  0  0  0  0  0  0
    0.8227   -0.1174    0.7957 C   0  0  0  0  0  0  0  0  0  0  0  0
    0.0528   -0.8895   -0.2665 C   0  0  0  0  0  0  0  0  0  0  0  0
   -1.3673   -0.5511   -0.2859 N   0  0  0  0  0  0  0  0  0  0  0  0
   -2.3843   -1.2969    0.2919 C   0  0  0  0  0  0  0  0  0  0  0  0
   -2.3472   -2.4742    1.0576 C   0  0  0  0  0  0  0  0  0  0  0  0
   -3.5570   -3.0054    1.5145 C   0  0  0  0  0  0  0  0  0  0  0  0
   -4.7674   -2.3853    1.2237 C   0  0  0  0  0  0  0  0  0  0  0  0
   -4.7998   -1.2087    0.4690 C   0  0  0  0  0  0  0  0  0  0  0  0
   -3.5939   -0.6517   -0.0039 C   0  0  0  0  0  0  0  0  0  0  0  0
   -3.2690    0.4985   -0.7638 C   0  0  0  0  0  0  0  0  0  0  0  0
   -4.0750    1.5440   -1.3370 C   0  0  0  0  0  0  0  0  0  0  0  0
   -3.5304    2.5171   -2.0124 N   0  0  0  0  0  0  0  0  0  0  0  0
   -2.1487    2.5277   -2.1655 N   0  0  0  0  0  0  0  0  0  0  0  0
   -1.2564    1.5871   -1.6662 C   0  0  0  0  0  0  0  0  0  0  0  0
   -0.0478    1.6670   -1.8627 O   0  0  0  0  0  0  0  0  0  0  0  0
   -1.9037    0.5353   -0.9308 C   0  0  0  0  0  0  0  0  0  0  0  0
    2.1748    0.1261    0.5553 N   0  0  0  0  0  0  0  0  0  0  0  0
    2.8947   -0.3398   -0.6309 C   0  0  0  0  0  0  0  0  0  0  0  0
    4.4040   -0.3603   -0.4196 C   0  0  0  0  0  0  0  0  0  0  0  0
    4.9458    1.0091   -0.0129 C   0  0  0  0  0  0  0  0  0  0  0  0
    3.9421    1.8345    0.7927 C   0  0  0  0  0  0  0  0  0  0  0  0
    2.9149    0.9604    1.5028 C   0  0  0  0  0  0  0  0  0  0  0  0
    0.1571   -1.9600   -0.0675 H   0  0  0  0  0  0  0  0  0  0  0  0
    0.4292   -0.7035   -1.2748 H   0  0  0  0  0  0  0  0  0  0  0  0
   -1.4112   -2.9623    1.3094 H   0  0  0  0  0  0  0  0  0  0  0  0
   -3.5485   -3.9137    2.1131 H   0  0  0  0  0  0  0  0  0  0  0  0
   -5.6961   -2.8136    1.5928 H   0  0  0  0  0  0  0  0  0  0  0  0
   -5.7519   -0.7311    0.2575 H   0  0  0  0  0  0  0  0  0  0  0  0
   -5.1674    1.5155   -1.2006 H   0  0  0  0  0  0  0  0  0  0  0  0
   -1.7619    3.3029   -2.6912 H   0  0  0  0  0  0  0  0  0  0  0  0
    2.6337    0.3307   -1.4579 H   0  0  0  0  0  0  0  0  0  0  0  0
    2.5510   -1.3462   -0.8909 H   0  0  0  0  0  0  0  0  0  0  0  0
    4.9120   -0.7075   -1.3261 H   0  0  0  0  0  0  0  0  0  0  0  0
    4.6424   -1.0841    0.3706 H   0  0  0  0  0  0  0  0  0  0  0  0
    5.8646    0.8672    0.5687 H   0  0  0  0  0  0  0  0  0  0  0  0
    5.2344    1.5766   -0.9059 H   0  0  0  0  0  0  0  0  0  0  0  0
    4.4739    2.4632    1.5155 H   0  0  0  0  0  0  0  0  0  0  0  0
    3.4168    2.5155    0.1104 H   0  0  0  0  0  0  0  0  0  0  0  0
    2.2275    1.5940    2.0732 H   0  0  0  0  0  0  0  0  0  0  0  0
    3.4078    0.2871    2.2140 H   0  0  0  0  0  0  0  0  0  0  0  0
  1  2  2  0
  2  3  1  0
  3  4  1  0
  4  5  1  0
  5  6  2  0
  6  7  1  0
  7  8  2  0
  8  9  1  0
  9 10  2  0
 10 11  1  0
 11 12  1  0
 12 13  2  0
 13 14  1  0
 14 15  1  0
 15 16  2  0
 15 17  1  0
  2 18  1  0
 18 19  1  0
 19 20  1  0
 20 21  1  0
 21 22  1  0
 22 23  1  0
 17  4  1  0
 23 18  1  0
 10  5  1  0
 17 11  2  0
  3 24  1  0
  3 25  1  0
  6 26  1  0
  7 27  1  0
  8 28  1  0
  9 29  1  0
 12 30  1  0
 14 31  1  0
 19 32  1  0
 19 33  1  0
 20 34  1  0
 20 35  1  0
 21 36  1  0
 21 37  1  0
 22 38  1  0
 22 39  1  0
 23 40  1  0
 23 41  1  0
M  END
$$$$
