
     RDKit          3D

 58 61  0  0  0  0  0  0  0  0999 V2000
    0.1559    0.7057    0.3688 O   0  0  0  0  0  0  0  0  0  0  0  0
    0.2281    0.2441   -0.7653 C   0  0  0  0  0  0  0  0  0  0  0  0
    1.4096    0.1829   -1.4788 N   0  0  0  0  0  0  0  0  0  0  0  0
    2.6651    0.6067   -0.8839 C   0  0  0  0  0  0  0  0  0  0  0  0
    3.2862   -0.5054   -0.0445 C   0  0  0  0  0  0  0  0  0  0  0  0
    4.4160   -0.0556    0.8923 C   0  0  0  0  0  0  0  0  0  0  0  0
    5.7312    0.1305    0.2519 N   0  0  0  0  0  0  0  0  0  0  0  0
    5.8007    1.3706   -0.5607 C   0  0  0  0  0  0  0  0  0  0  0  0
    7.2117    1.9820   -0.6059 C   0  0  0  0  0  0  0  0  0  0  0  0
    7.6742    2.3878    0.6914 O   0  0  0  0  0  0  0  0  0  0  0  0
    7.2034    1.5362    1.7479 C   0  0  0  0  0  0  0  0  0  0  0  0
    6.8194    0.1281    1.2635 C   0  0  0  0  0  0  0  0  0  0  0  0
   -0.9796   -0.3368   -1.4209 C   0  0  0  0  0  0  0  0  0  0  0  0
   -1.0977   -0.4469   -2.8029 C   0  0  0  0  0  0  0  0  0  0  0  0
   -2.2489   -1.0132   -3.3441 C   0  0  0  0  0  0  0  0  0  0  0  0
   -3.2956   -1.4633   -2.5161 C   0  0  0  0  0  0  0  0  0  0  0  0
   -3.2117   -1.3581   -1.1028 C   0  0  0  0  0  0  0  0  0  0  0  0
   -2.0327   -0.7733   -0.5978 C   0  0  0  0  0  0  0  0  0  0  0  0
   -4.2344   -1.7857   -0.2493 N   0  0  0  0  0  0  0  0  0  0  0  0
   -4.1758   -1.6365    1.2122 C   0  0  0  0  0  0  0  0  0  0  0  0
   -4.5847   -0.2447    1.6508 C   0  0  0  0  0  0  0  0  0  0  0  0
   -3.7079    0.5599    2.3974 C   0  0  0  0  0  0  0  0  0  0  0  0
   -4.0897    1.8404    2.8112 C   0  0  0  0  0  0  0  0  0  0  0  0
   -5.3552    2.3291    2.4934 C   0  0  0  0  0  0  0  0  0  0  0  0
   -6.2402    1.5386    1.7603 C   0  0  0  0  0  0  0  0  0  0  0  0
   -5.8579    0.2596    1.3418 C   0  0  0  0  0  0  0  0  0  0  0  0
   -5.2542   -2.6988   -0.7773 C   0  0  0  0  0  0  0  0  0  0  0  0
   -5.9021   -2.1516   -2.0389 C   0  0  0  0  0  0  0  0  0  0  0  0
   -4.7069   -2.1463   -3.3955 S   0  0  0  0  0  0  0  0  0  0  0  0
    1.4593   -0.4073   -2.2971 H   0  0  0  0  0  0  0  0  0  0  0  0
    3.3147    0.8867   -1.7162 H   0  0  0  0  0  0  0  0  0  0  0  0
    2.4816    1.4978   -0.2735 H   0  0  0  0  0  0  0  0  0  0  0  0
    2.5043   -0.9519    0.5847 H   0  0  0  0  0  0  0  0  0  0  0  0
    3.6342   -1.3160   -0.6980 H   0  0  0  0  0  0  0  0  0  0  0  0
    4.1160    0.8342    1.4615 H   0  0  0  0  0  0  0  0  0  0  0  0
    4.5097   -0.8675    1.6273 H   0  0  0  0  0  0  0  0  0  0  0  0
    5.4921    1.1415   -1.5875 H   0  0  0  0  0  0  0  0  0  0  0  0
    5.1220    2.1354   -0.1548 H   0  0  0  0  0  0  0  0  0  0  0  0
    7.9359    1.2716   -1.0301 H   0  0  0  0  0  0  0  0  0  0  0  0
    7.2154    2.8706   -1.2501 H   0  0  0  0  0  0  0  0  0  0  0  0
    8.0011    1.4699    2.4972 H   0  0  0  0  0  0  0  0  0  0  0  0
    6.3482    2.0322    2.2271 H   0  0  0  0  0  0  0  0  0  0  0  0
    7.6974   -0.3294    0.7864 H   0  0  0  0  0  0  0  0  0  0  0  0
    6.5813   -0.5136    2.1205 H   0  0  0  0  0  0  0  0  0  0  0  0
   -0.3294   -0.0774   -3.4739 H   0  0  0  0  0  0  0  0  0  0  0  0
   -2.3364   -1.0888   -4.4267 H   0  0  0  0  0  0  0  0  0  0  0  0
   -1.8931   -0.6483    0.4705 H   0  0  0  0  0  0  0  0  0  0  0  0
   -3.1882   -1.9137    1.6011 H   0  0  0  0  0  0  0  0  0  0  0  0
   -4.8606   -2.3417    1.7029 H   0  0  0  0  0  0  0  0  0  0  0  0
   -2.7117    0.2041    2.6533 H   0  0  0  0  0  0  0  0  0  0  0  0
   -3.3939    2.4588    3.3751 H   0  0  0  0  0  0  0  0  0  0  0  0
   -5.6473    3.3280    2.8131 H   0  0  0  0  0  0  0  0  0  0  0  0
   -7.2262    1.9194    1.5071 H   0  0  0  0  0  0  0  0  0  0  0  0
   -6.5567   -0.3407    0.7624 H   0  0  0  0  0  0  0  0  0  0  0  0
   -4.8189   -3.6934   -0.9411 H   0  0  0  0  0  0  0  0  0  0  0  0
   -6.0529   -2.8344   -0.0373 H   0  0  0  0  0  0  0  0  0  0  0  0
   -6.7501   -2.7786   -2.3315 H   0  0  0  0  0  0  0  0  0  0  0  0
   -6.2742   -1.1334   -1.8813 H   0  0  0  0  0  0  0  0  0  0  0  0
  1  2  2  0
  2  3  1  0
  3  4  1  0
  4  5  1  0
  5  6  1  0
  6  7  1  0
  7  8  1  0
  8  9  1  0
  9 10  1  0
 10 11  1  0
 11 12  1  0
  2 13  1  0
 13 14  2  0
 14 15  1  0
 15 16  2  0
 16 17  1  0
 17 18  2  0
 17 19  1  0
 19 20  1  0
 20 21  1  0
 21 22  2  0
 22 23  1  0
 23 24  2  0
 24 25  1  0
 25 26  2  0
 19 27  1  0
 27 28  1  0
 28 29  1  0
 12  7  1  0
 18 13  1  0
 26 21  1  0
 29 16  1  0
  3 30  1  0
  4 31  1  0
  4 32  1  0
  5 33  1  0
  5 34  1  0
  6 35  1  0
  6 36  1  0
  8 37  1  0
  8 38  1  0
  9 39  1  0
  9 40  1  0
 11 41  1  0
 11 42  1  0
 12 43  1  0
 12 44  1  0
 14 45  1  0
 15 46  1  0
 18 47  1  0
 20 48  1  0
 20 49  1  0
 22 50  1  0
 23 51  1  0
 24 52  1  0
 25 53  1  0
 26 54  1  0
 27 55  1  0
 27 56  1  0
 28 57  1  0
 28 58  1  0
M  END
$$$$
