
     RDKit          3D

 36 38  0  0  0  0  0  0  0  0999 V2000
   -6.0353   -0.1459    0.8628 C   0  0  0  0  0  0  0  0  0  0  0  0
   -4.5963   -0.0211    0.4554 C   0  0  0  0  0  0  0  0  0  0  0  0
   -4.2298    0.8168   -0.6086 C   0  0  0  0  0  0  0  0  0  0  0  0
   -2.8922    0.9212   -1.0239 C   0  0  0  0  0  0  0  0  0  0  0  0
   -2.5234    1.8266   -2.1651 C   0  0  0  0  0  0  0  0  0  0  0  0
   -1.9161    0.1610   -0.3645 C   0  0  0  0  0  0  0  0  0  0  0  0
   -0.6152    0.2832   -0.7903 O   0  0  0  0  0  0  0  0  0  0  0  0
    0.3649   -0.4586   -0.1545 C   0  0  0  0  0  0  0  0  0  0  0  0
    1.7539   -0.3183   -0.6989 C   0  0  0  0  0  0  0  0  0  0  0  0
    1.9290   -0.2992   -1.9110 O   0  0  0  0  0  0  0  0  0  0  0  0
    2.7234   -0.1700    0.2739 N   0  0  0  0  0  0  0  0  0  0  0  0
    4.1122   -0.0326    0.0596 C   0  0  0  0  0  0  0  0  0  0  0  0
    4.9254    0.1556    1.1805 C   0  0  0  0  0  0  0  0  0  0  0  0
    6.3044    0.2916    1.0279 C   0  0  0  0  0  0  0  0  0  0  0  0
    6.8329    0.2333   -0.2494 C   0  0  0  0  0  0  0  0  0  0  0  0
    6.0855    0.0513   -1.3563 N   0  0  0  0  0  0  0  0  0  0  0  0
    4.7441   -0.0771   -1.1805 C   0  0  0  0  0  0  0  0  0  0  0  0
    0.1364   -1.3255    0.8412 C   0  0  0  0  0  0  0  0  0  0  0  0
   -1.2346   -1.4773    1.3481 C   0  0  0  0  0  0  0  0  0  0  0  0
   -1.4687   -2.2256    2.2875 O   0  0  0  0  0  0  0  0  0  0  0  0
   -2.2795   -0.6851    0.6823 C   0  0  0  0  0  0  0  0  0  0  0  0
   -3.6121   -0.7837    1.0929 C   0  0  0  0  0  0  0  0  0  0  0  0
   -6.1205   -0.3877    1.9275 H   0  0  0  0  0  0  0  0  0  0  0  0
   -6.5216   -0.9346    0.2807 H   0  0  0  0  0  0  0  0  0  0  0  0
   -6.5698    0.7960    0.7004 H   0  0  0  0  0  0  0  0  0  0  0  0
   -4.9984    1.3950   -1.1206 H   0  0  0  0  0  0  0  0  0  0  0  0
   -1.7952    2.5747   -1.8355 H   0  0  0  0  0  0  0  0  0  0  0  0
   -2.0983    1.2434   -2.9882 H   0  0  0  0  0  0  0  0  0  0  0  0
   -3.3969    2.3622   -2.5515 H   0  0  0  0  0  0  0  0  0  0  0  0
    2.4180   -0.1029    1.2363 H   0  0  0  0  0  0  0  0  0  0  0  0
    4.5039    0.1996    2.1805 H   0  0  0  0  0  0  0  0  0  0  0  0
    6.9511    0.4393    1.8856 H   0  0  0  0  0  0  0  0  0  0  0  0
    7.9006    0.3336   -0.4219 H   0  0  0  0  0  0  0  0  0  0  0  0
    4.2017   -0.2232   -2.1086 H   0  0  0  0  0  0  0  0  0  0  0  0
    0.8950   -1.9466    1.2994 H   0  0  0  0  0  0  0  0  0  0  0  0
   -3.8787   -1.4557    1.9069 H   0  0  0  0  0  0  0  0  0  0  0  0
  1  2  1  0
  2  3  2  0
  3  4  1  0
  4  5  1  0
  4  6  2  0
  6  7  1  0
  7  8  1  0
  8  9  1  0
  9 10  2  0
  9 11  1  0
 11 12  1  0
 12 13  2  0
 13 14  1  0
 14 15  2  0
 15 16  1  0
 16 17  2  0
  8 18  2  0
 18 19  1  0
 19 20  2  0
 19 21  1  0
 21 22  2  0
 22  2  1  0
 21  6  1  0
 17 12  1  0
  1 23  1  0
  1 24  1  0
  1 25  1  0
  3 26  1  0
  5 27  1  0
  5 28  1  0
  5 29  1  0
 11 30  1  0
 13 31  1  0
 14 32  1  0
 15 33  1  0
 17 34  1  0
 18 35  1  0
 22 36  1  0
M  END
$$$$
