
     RDKit          3D

 46 48  0  0  0  0  0  0  0  0999 V2000
   -1.8853   -0.4662    2.7064 C   0  0  0  0  0  0  0  0  0  0  0  0
   -2.6671    0.4497    1.8418 C   0  0  0  0  0  0  0  0  0  0  0  0
   -3.7737    1.2474    2.1992 C   0  0  0  0  0  0  0  0  0  0  0  0
   -4.1368    1.9142    1.0481 C   0  0  0  0  0  0  0  0  0  0  0  0
   -5.2164    2.9056    0.8172 C   0  0  0  0  0  0  0  0  0  0  0  0
   -3.2603    1.4837    0.0840 N   0  0  0  0  0  0  0  0  0  0  0  0
   -3.1777    1.9047   -1.3086 C   0  0  0  0  0  0  0  0  0  0  0  0
   -1.8956    2.6655   -1.6212 C   0  0  0  0  0  0  0  0  0  0  0  0
   -0.8012    1.7377   -2.1033 C   0  0  0  0  0  0  0  0  0  0  0  0
   -0.4871    1.6742   -3.2880 O   0  0  0  0  0  0  0  0  0  0  0  0
   -0.2013    0.9981   -1.1123 N   0  0  0  0  0  0  0  0  0  0  0  0
    0.7419   -0.0600   -1.4244 C   0  0  0  0  0  0  0  0  0  0  0  0
    2.0439    0.4387   -2.0443 C   0  0  0  0  0  0  0  0  0  0  0  0
    2.9967   -0.7301   -1.8232 C   0  0  0  0  0  0  0  0  0  0  0  0
    2.5585   -1.3316   -0.5702 N   0  0  0  0  0  0  0  0  0  0  0  0
    3.3026   -2.1522    0.2547 C   0  0  0  0  0  0  0  0  0  0  0  0
    4.6026   -2.7178   -0.2112 C   0  0  0  0  0  0  0  0  0  0  0  0
    5.3124   -3.4829    0.6196 C   0  0  0  0  0  0  0  0  0  0  0  0
    4.8047   -3.7649    1.9698 C   0  0  0  0  0  0  0  0  0  0  0  0
    5.4529   -4.4492    2.7541 O   0  0  0  0  0  0  0  0  0  0  0  0
    3.5860   -3.2229    2.2699 N   0  0  0  0  0  0  0  0  0  0  0  0
    2.8404   -2.4273    1.4508 N   0  0  0  0  0  0  0  0  0  0  0  0
    1.2529   -0.8019   -0.1766 C   0  0  0  0  0  0  0  0  0  0  0  0
   -2.3528    0.5984    0.5500 N   0  0  0  0  0  0  0  0  0  0  0  0
   -2.2080   -1.5012    2.5532 H   0  0  0  0  0  0  0  0  0  0  0  0
   -0.8160   -0.3981    2.4807 H   0  0  0  0  0  0  0  0  0  0  0  0
   -2.0209   -0.2185    3.7635 H   0  0  0  0  0  0  0  0  0  0  0  0
   -4.2418    1.3316    3.1704 H   0  0  0  0  0  0  0  0  0  0  0  0
   -5.8920    2.5738    0.0223 H   0  0  0  0  0  0  0  0  0  0  0  0
   -5.8136    3.0501    1.7237 H   0  0  0  0  0  0  0  0  0  0  0  0
   -4.7898    3.8749    0.5377 H   0  0  0  0  0  0  0  0  0  0  0  0
   -4.0374    2.5512   -1.5102 H   0  0  0  0  0  0  0  0  0  0  0  0
   -3.2904    1.0028   -1.9237 H   0  0  0  0  0  0  0  0  0  0  0  0
   -2.0865    3.3781   -2.4337 H   0  0  0  0  0  0  0  0  0  0  0  0
   -1.5334    3.2453   -0.7645 H   0  0  0  0  0  0  0  0  0  0  0  0
   -0.8031    0.8242   -0.2991 H   0  0  0  0  0  0  0  0  0  0  0  0
    0.2518   -0.7665   -2.1078 H   0  0  0  0  0  0  0  0  0  0  0  0
    2.4081    1.3267   -1.5110 H   0  0  0  0  0  0  0  0  0  0  0  0
    1.9536    0.6981   -3.1035 H   0  0  0  0  0  0  0  0  0  0  0  0
    4.0302   -0.3695   -1.7766 H   0  0  0  0  0  0  0  0  0  0  0  0
    2.9097   -1.4623   -2.6349 H   0  0  0  0  0  0  0  0  0  0  0  0
    4.9420   -2.5092   -1.2139 H   0  0  0  0  0  0  0  0  0  0  0  0
    6.2592   -3.9287    0.3478 H   0  0  0  0  0  0  0  0  0  0  0  0
    3.2098   -3.4006    3.1936 H   0  0  0  0  0  0  0  0  0  0  0  0
    0.5577   -1.5975    0.1120 H   0  0  0  0  0  0  0  0  0  0  0  0
    1.3704   -0.1154    0.6703 H   0  0  0  0  0  0  0  0  0  0  0  0
  1  2  1  0
  2  3  1  0
  3  4  2  0
  4  5  1  0
  4  6  1  0
  6  7  1  0
  7  8  1  0
  8  9  1  0
  9 10  2  0
  9 11  1  0
 11 12  1  0
 12 13  1  0
 13 14  1  0
 14 15  1  0
 15 16  1  0
 16 17  1  0
 17 18  2  0
 18 19  1  0
 19 20  2  0
 19 21  1  0
 21 22  1  0
 15 23  1  0
  6 24  1  0
 24  2  2  0
 23 12  1  0
 22 16  2  0
  1 25  1  0
  1 26  1  0
  1 27  1  0
  3 28  1  0
  5 29  1  0
  5 30  1  0
  5 31  1  0
  7 32  1  0
  7 33  1  0
  8 34  1  0
  8 35  1  0
 11 36  1  0
 12 37  1  0
 13 38  1  0
 13 39  1  0
 14 40  1  0
 14 41  1  0
 17 42  1  0
 18 43  1  0
 21 44  1  0
 23 45  1  0
 23 46  1  0
M  END
$$$$
