
     RDKit          3D

 53 56  0  0  0  0  0  0  0  0999 V2000
    6.1355    0.9093    3.8586 C   0  0  0  0  0  0  0  0  0  0  0  0
    6.6365    0.6455    2.5526 O   0  0  0  0  0  0  0  0  0  0  0  0
    5.7495    0.7475    1.5192 C   0  0  0  0  0  0  0  0  0  0  0  0
    6.3193    0.6609    0.2433 C   0  0  0  0  0  0  0  0  0  0  0  0
    5.5387    0.7605   -0.9143 C   0  0  0  0  0  0  0  0  0  0  0  0
    6.2365    0.6731   -2.0879 O   0  0  0  0  0  0  0  0  0  0  0  0
    5.5332    1.0051   -3.2828 C   0  0  0  0  0  0  0  0  0  0  0  0
    4.1629    0.9226   -0.7946 C   0  0  0  0  0  0  0  0  0  0  0  0
    3.5888    0.9700    0.4817 C   0  0  0  0  0  0  0  0  0  0  0  0
    2.1293    1.1379    0.6331 C   0  0  0  0  0  0  0  0  0  0  0  0
    1.7311    2.1560    1.1939 O   0  0  0  0  0  0  0  0  0  0  0  0
    1.2849    0.1341    0.1505 N   0  0  0  0  0  0  0  0  0  0  0  0
    1.7609   -1.2228   -0.1342 C   0  0  0  0  0  0  0  0  0  0  0  0
    0.6370   -2.1871   -0.5131 C   0  0  0  0  0  0  0  0  0  0  0  0
   -0.3748   -1.4935   -1.4199 C   0  0  0  0  0  0  0  0  0  0  0  0
   -1.0356   -0.3010   -0.7073 C   0  0  0  0  0  0  0  0  0  0  0  0
   -2.2866   -0.7705   -0.1843 O   0  0  0  0  0  0  0  0  0  0  0  0
   -3.1274    0.2750    0.3243 C   0  0  0  0  0  0  0  0  0  0  0  0
   -4.5207   -0.2028    0.5552 C   0  0  0  0  0  0  0  0  0  0  0  0
   -4.8689   -0.9308    1.6293 N   0  0  0  0  0  0  0  0  0  0  0  0
   -6.2304   -1.1598    1.4265 O   0  0  0  0  0  0  0  0  0  0  0  0
   -6.5732   -0.5313    0.2537 C   0  0  0  0  0  0  0  0  0  0  0  0
   -8.0022   -0.5339   -0.3368 C   0  0  0  0  0  0  0  0  0  0  0  0
   -8.4550    0.0861   -1.5258 C   0  0  0  0  0  0  0  0  0  0  0  0
   -9.7991   -0.1981   -1.6091 C   0  0  0  0  0  0  0  0  0  0  0  0
  -10.1918   -0.9582   -0.5519 O   0  0  0  0  0  0  0  0  0  0  0  0
   -9.0889   -1.1598    0.2252 C   0  0  0  0  0  0  0  0  0  0  0  0
   -5.5527    0.0817   -0.3122 N   0  0  0  0  0  0  0  0  0  0  0  0
   -0.1443    0.2807    0.4090 C   0  0  0  0  0  0  0  0  0  0  0  0
    4.3745    0.9093    1.6391 C   0  0  0  0  0  0  0  0  0  0  0  0
    6.9838    0.9068    4.5505 H   0  0  0  0  0  0  0  0  0  0  0  0
    5.6663    1.8971    3.9138 H   0  0  0  0  0  0  0  0  0  0  0  0
    5.4418    0.1232    4.1761 H   0  0  0  0  0  0  0  0  0  0  0  0
    7.3951    0.5281    0.1505 H   0  0  0  0  0  0  0  0  0  0  0  0
    5.1006    2.0127   -3.2254 H   0  0  0  0  0  0  0  0  0  0  0  0
    4.7665    0.2535   -3.5028 H   0  0  0  0  0  0  0  0  0  0  0  0
    6.2523    0.9990   -4.1094 H   0  0  0  0  0  0  0  0  0  0  0  0
    3.5179    1.0105   -1.6614 H   0  0  0  0  0  0  0  0  0  0  0  0
    2.2947   -1.5990    0.7479 H   0  0  0  0  0  0  0  0  0  0  0  0
    2.4811   -1.1717   -0.9551 H   0  0  0  0  0  0  0  0  0  0  0  0
    1.0586   -3.0677   -1.0104 H   0  0  0  0  0  0  0  0  0  0  0  0
    0.1303   -2.5454    0.3923 H   0  0  0  0  0  0  0  0  0  0  0  0
   -1.1282   -2.2172   -1.7527 H   0  0  0  0  0  0  0  0  0  0  0  0
    0.1485   -1.1336   -2.3158 H   0  0  0  0  0  0  0  0  0  0  0  0
   -1.2414    0.4654   -1.4661 H   0  0  0  0  0  0  0  0  0  0  0  0
   -2.7115    0.6427    1.2684 H   0  0  0  0  0  0  0  0  0  0  0  0
   -3.1524    1.1082   -0.3877 H   0  0  0  0  0  0  0  0  0  0  0  0
   -7.8758    0.6711   -2.2290 H   0  0  0  0  0  0  0  0  0  0  0  0
  -10.5781    0.0565   -2.3177 H   0  0  0  0  0  0  0  0  0  0  0  0
   -9.2444   -1.7538    1.1173 H   0  0  0  0  0  0  0  0  0  0  0  0
   -0.3520   -0.2093    1.3690 H   0  0  0  0  0  0  0  0  0  0  0  0
   -0.4040    1.3369    0.5484 H   0  0  0  0  0  0  0  0  0  0  0  0
    3.8832    0.9804    2.6044 H   0  0  0  0  0  0  0  0  0  0  0  0
  1  2  1  0
  2  3  1  0
  3  4  2  0
  4  5  1  0
  5  6  1  0
  6  7  1  0
  5  8  2  0
  8  9  1  0
  9 10  1  0
 10 11  2  0
 10 12  1  0
 12 13  1  0
 13 14  1  0
 14 15  1  0
 15 16  1  0
 16 17  1  0
 17 18  1  0
 18 19  1  0
 19 20  2  0
 20 21  1  0
 21 22  1  0
 22 23  1  0
 23 24  1  0
 24 25  2  0
 25 26  1  0
 26 27  1  0
 22 28  2  0
 16 29  1  0
  9 30  2  0
 30  3  1  0
 29 12  1  0
 28 19  1  0
 27 23  2  0
  1 31  1  0
  1 32  1  0
  1 33  1  0
  4 34  1  0
  7 35  1  0
  7 36  1  0
  7 37  1  0
  8 38  1  0
 13 39  1  0
 13 40  1  0
 14 41  1  0
 14 42  1  0
 15 43  1  0
 15 44  1  0
 16 45  1  0
 18 46  1  0
 18 47  1  0
 24 48  1  0
 25 49  1  0
 27 50  1  0
 29 51  1  0
 29 52  1  0
 30 53  1  0
M  END
$$$$
