
     RDKit          3D

 49 51  0  0  0  0  0  0  0  0999 V2000
    8.8719    0.8909    1.2868 C   0  0  0  0  0  0  0  0  0  0  0  0
    7.6176    0.6183    0.4760 C   0  0  0  0  0  0  0  0  0  0  0  0
    6.4935    0.7637    1.3424 O   0  0  0  0  0  0  0  0  0  0  0  0
    5.2572    0.5726    0.7918 C   0  0  0  0  0  0  0  0  0  0  0  0
    4.1908    0.7479    1.6739 C   0  0  0  0  0  0  0  0  0  0  0  0
    2.8718    0.5829    1.2399 C   0  0  0  0  0  0  0  0  0  0  0  0
    2.5992    0.2390   -0.0878 C   0  0  0  0  0  0  0  0  0  0  0  0
    1.2472    0.0844   -0.4503 N   0  0  0  0  0  0  0  0  0  0  0  0
    0.7424   -0.1951   -1.7011 C   0  0  0  0  0  0  0  0  0  0  0  0
    1.3459   -0.3186   -2.7573 O   0  0  0  0  0  0  0  0  0  0  0  0
   -0.7386   -0.3054   -1.6864 C   0  0  0  0  0  0  0  0  0  0  0  0
   -1.3372   -1.2633   -0.9552 C   0  0  0  0  0  0  0  0  0  0  0  0
   -2.8253   -1.4193   -0.8620 C   0  0  0  0  0  0  0  0  0  0  0  0
   -3.5305   -0.2328   -1.4046 N   0  0  0  0  0  0  0  0  0  0  0  0
   -3.8980    1.0036   -0.2923 S   0  0  0  0  0  6  0  0  0  0  0  0
   -2.7150    1.2510    0.5063 O   0  0  0  0  0  0  0  0  0  0  0  0
   -4.5661    2.0740   -0.9996 O   0  0  0  0  0  0  0  0  0  0  0  0
   -5.1195    0.2315    0.7442 C   0  0  0  0  0  0  0  0  0  0  0  0
   -4.8758    0.0599    2.1115 C   0  0  0  0  0  0  0  0  0  0  0  0
   -5.8476   -0.5502    2.9057 C   0  0  0  0  0  0  0  0  0  0  0  0
   -7.0427   -0.9735    2.3291 C   0  0  0  0  0  0  0  0  0  0  0  0
   -7.9709   -1.5596    3.0961 F   0  0  0  0  0  0  0  0  0  0  0  0
   -7.2904   -0.7976    0.9703 C   0  0  0  0  0  0  0  0  0  0  0  0
   -6.3251   -0.1889    0.1684 C   0  0  0  0  0  0  0  0  0  0  0  0
   -2.9551    0.2212   -2.7025 C   0  0  0  0  0  0  0  0  0  0  0  0
   -1.4995    0.6583   -2.5460 C   0  0  0  0  0  0  0  0  0  0  0  0
    3.6671    0.0617   -0.9678 C   0  0  0  0  0  0  0  0  0  0  0  0
    4.9896    0.2280   -0.5316 C   0  0  0  0  0  0  0  0  0  0  0  0
    9.7669    0.7889    0.6666 H   0  0  0  0  0  0  0  0  0  0  0  0
    8.8465    1.9018    1.7068 H   0  0  0  0  0  0  0  0  0  0  0  0
    8.9447    0.1970    2.1308 H   0  0  0  0  0  0  0  0  0  0  0  0
    7.5604    1.3400   -0.3470 H   0  0  0  0  0  0  0  0  0  0  0  0
    7.6626   -0.4028    0.0800 H   0  0  0  0  0  0  0  0  0  0  0  0
    4.3879    1.0183    2.7084 H   0  0  0  0  0  0  0  0  0  0  0  0
    2.0680    0.7318    1.9557 H   0  0  0  0  0  0  0  0  0  0  0  0
    0.5660    0.2447    0.2831 H   0  0  0  0  0  0  0  0  0  0  0  0
   -0.7413   -1.9715   -0.3840 H   0  0  0  0  0  0  0  0  0  0  0  0
   -3.1392   -2.3039   -1.4275 H   0  0  0  0  0  0  0  0  0  0  0  0
   -3.1096   -1.6005    0.1789 H   0  0  0  0  0  0  0  0  0  0  0  0
   -3.9456    0.3990    2.5619 H   0  0  0  0  0  0  0  0  0  0  0  0
   -5.6858   -0.6943    3.9698 H   0  0  0  0  0  0  0  0  0  0  0  0
   -8.2338   -1.1312    0.5487 H   0  0  0  0  0  0  0  0  0  0  0  0
   -6.5124   -0.0398   -0.8931 H   0  0  0  0  0  0  0  0  0  0  0  0
   -3.0233   -0.6134   -3.4131 H   0  0  0  0  0  0  0  0  0  0  0  0
   -3.5598    1.0264   -3.1328 H   0  0  0  0  0  0  0  0  0  0  0  0
   -1.4540    1.6531   -2.0868 H   0  0  0  0  0  0  0  0  0  0  0  0
   -1.0450    0.7394   -3.5399 H   0  0  0  0  0  0  0  0  0  0  0  0
    3.5078   -0.2096   -2.0070 H   0  0  0  0  0  0  0  0  0  0  0  0
    5.7819    0.0788   -1.2575 H   0  0  0  0  0  0  0  0  0  0  0  0
  1  2  1  0
  2  3  1  0
  3  4  1  0
  4  5  2  0
  5  6  1  0
  6  7  2  0
  7  8  1  0
  8  9  1  0
  9 10  2  0
  9 11  1  0
 11 12  2  0
 12 13  1  0
 13 14  1  0
 14 15  1  0
 15 16  2  0
 15 17  2  0
 15 18  1  0
 18 19  2  0
 19 20  1  0
 20 21  2  0
 21 22  1  0
 21 23  1  0
 23 24  2  0
 14 25  1  0
 25 26  1  0
  7 27  1  0
 27 28  2  0
 28  4  1  0
 26 11  1  0
 24 18  1  0
  1 29  1  0
  1 30  1  0
  1 31  1  0
  2 32  1  0
  2 33  1  0
  5 34  1  0
  6 35  1  0
  8 36  1  0
 12 37  1  0
 13 38  1  0
 13 39  1  0
 19 40  1  0
 20 41  1  0
 23 42  1  0
 24 43  1  0
 25 44  1  0
 25 45  1  0
 26 46  1  0
 26 47  1  0
 27 48  1  0
 28 49  1  0
M  END
$$$$
