
     RDKit          3D

 51 54  0  0  0  0  0  0  0  0999 V2000
   -3.1097    2.4109    2.5905 C   0  0  0  0  0  0  0  0  0  0  0  0
   -2.5048    2.2885    1.2026 C   0  0  0  0  0  0  0  0  0  0  0  0
   -2.7563    0.9905    0.6054 N   0  0  0  0  0  0  0  0  0  0  0  0
   -1.9246   -0.1168    0.6323 C   0  0  0  0  0  0  0  0  0  0  0  0
   -0.5898   -0.1569    1.3225 C   0  0  0  0  0  0  0  0  0  0  0  0
    0.4347    0.6410    0.6269 N   0  0  0  0  0  0  0  0  0  0  0  0
    0.8138    0.0531   -0.6806 C   0  0  0  0  0  0  0  0  0  0  0  0
    2.0542   -0.8713   -0.6712 C   0  0  0  0  0  0  0  0  0  0  0  0
    3.2318   -0.1815   -0.1126 N   0  0  0  0  0  0  0  0  0  0  0  0
    4.5143   -0.5071   -0.5248 C   0  0  0  0  0  0  0  0  0  0  0  0
    4.8167   -1.7754   -1.0527 C   0  0  0  0  0  0  0  0  0  0  0  0
    6.1085   -2.1235   -1.4674 C   0  0  0  0  0  0  0  0  0  0  0  0
    7.1430   -1.2024   -1.3618 C   0  0  0  0  0  0  0  0  0  0  0  0
    6.8746    0.0567   -0.8405 C   0  0  0  0  0  0  0  0  0  0  0  0
    8.1467    1.2103   -0.7051 Cl  0  0  0  0  0  0  0  0  0  0  0  0
    5.5827    0.3988   -0.4267 C   0  0  0  0  0  0  0  0  0  0  0  0
    2.9586    0.9861    0.7399 C   0  0  0  0  0  0  0  0  0  0  0  0
    1.6247    0.7932    1.4973 C   0  0  0  0  0  0  0  0  0  0  0  0
   -2.4696   -1.1305   -0.0268 N   0  0  0  0  0  0  0  0  0  0  0  0
   -3.6602   -0.6589   -0.4793 C   0  0  0  0  0  0  0  0  0  0  0  0
   -3.8711    0.6360   -0.1060 C   0  0  0  0  0  0  0  0  0  0  0  0
   -5.0547    1.3447   -0.4507 C   0  0  0  0  0  0  0  0  0  0  0  0
   -5.3118    2.4991   -0.1285 O   0  0  0  0  0  0  0  0  0  0  0  0
   -5.9237    0.5844   -1.2013 N   0  0  0  0  0  0  0  0  0  0  0  0
   -5.7596   -0.7290   -1.6015 C   0  0  0  0  0  0  0  0  0  0  0  0
   -6.6506   -1.2645   -2.2611 O   0  0  0  0  0  0  0  0  0  0  0  0
   -4.5821   -1.3639   -1.2232 N   0  0  0  0  0  0  0  0  0  0  0  0
   -4.3284   -2.7407   -1.5987 C   0  0  0  0  0  0  0  0  0  0  0  0
   -2.6952    1.6588    3.2699 H   0  0  0  0  0  0  0  0  0  0  0  0
   -2.9010    3.4003    3.0090 H   0  0  0  0  0  0  0  0  0  0  0  0
   -4.1956    2.2739    2.5655 H   0  0  0  0  0  0  0  0  0  0  0  0
   -2.9092    3.0540    0.5327 H   0  0  0  0  0  0  0  0  0  0  0  0
   -1.4255    2.4538    1.2459 H   0  0  0  0  0  0  0  0  0  0  0  0
   -0.7327    0.2267    2.3412 H   0  0  0  0  0  0  0  0  0  0  0  0
   -0.2676   -1.2014    1.4243 H   0  0  0  0  0  0  0  0  0  0  0  0
    1.0326    0.8978   -1.3481 H   0  0  0  0  0  0  0  0  0  0  0  0
   -0.0218   -0.4728   -1.1554 H   0  0  0  0  0  0  0  0  0  0  0  0
    1.8458   -1.7710   -0.0803 H   0  0  0  0  0  0  0  0  0  0  0  0
    2.2372   -1.1780   -1.7083 H   0  0  0  0  0  0  0  0  0  0  0  0
    4.0444   -2.5367   -1.1299 H   0  0  0  0  0  0  0  0  0  0  0  0
    6.3000   -3.1164   -1.8657 H   0  0  0  0  0  0  0  0  0  0  0  0
    8.1456   -1.4694   -1.6823 H   0  0  0  0  0  0  0  0  0  0  0  0
    5.4201    1.4017   -0.0445 H   0  0  0  0  0  0  0  0  0  0  0  0
    3.7459    1.1090    1.4934 H   0  0  0  0  0  0  0  0  0  0  0  0
    2.9223    1.8968    0.1299 H   0  0  0  0  0  0  0  0  0  0  0  0
    1.4605    1.6517    2.1589 H   0  0  0  0  0  0  0  0  0  0  0  0
    1.7420   -0.0906    2.1405 H   0  0  0  0  0  0  0  0  0  0  0  0
   -6.7863    1.0252   -1.4784 H   0  0  0  0  0  0  0  0  0  0  0  0
   -4.2113   -3.3426   -0.6921 H   0  0  0  0  0  0  0  0  0  0  0  0
   -3.4093   -2.7866   -2.1913 H   0  0  0  0  0  0  0  0  0  0  0  0
   -5.1484   -3.1552   -2.1912 H   0  0  0  0  0  0  0  0  0  0  0  0
  1  2  1  0
  2  3  1  0
  3  4  1  0
  4  5  1  0
  5  6  1  0
  6  7  1  0
  7  8  1  0
  8  9  1  0
  9 10  1  0
 10 11  2  0
 11 12  1  0
 12 13  2  0
 13 14  1  0
 14 15  1  0
 14 16  2  0
  9 17  1  0
 17 18  1  0
  4 19  2  0
 19 20  1  0
 20 21  2  0
 21 22  1  0
 22 23  2  0
 22 24  1  0
 24 25  1  0
 25 26  2  0
 25 27  1  0
 27 28  1  0
 21  3  1  0
 18  6  1  0
 27 20  1  0
 16 10  1  0
  1 29  1  0
  1 30  1  0
  1 31  1  0
  2 32  1  0
  2 33  1  0
  5 34  1  0
  5 35  1  0
  7 36  1  0
  7 37  1  0
  8 38  1  0
  8 39  1  0
 11 40  1  0
 12 41  1  0
 13 42  1  0
 16 43  1  0
 17 44  1  0
 17 45  1  0
 18 46  1  0
 18 47  1  0
 24 48  1  0
 28 49  1  0
 28 50  1  0
 28 51  1  0
M  END
$$$$
