
     RDKit          3D

 51 53  0  0  0  0  0  0  0  0999 V2000
   -2.0891    4.9087    0.1913 C   0  0  0  0  0  0  0  0  0  0  0  0
   -1.9803    3.4720    0.1984 N   0  0  0  0  0  0  0  0  0  0  0  0
   -0.9815    2.8626   -0.5180 C   0  0  0  0  0  0  0  0  0  0  0  0
   -0.2026    3.4866   -1.2328 O   0  0  0  0  0  0  0  0  0  0  0  0
   -0.9338    1.4970   -0.3723 N   0  0  0  0  0  0  0  0  0  0  0  0
   -1.9750    0.6462    0.1848 C   0  0  0  0  0  0  0  0  0  0  0  0
   -1.8227   -0.7024   -0.5477 C   0  0  0  0  0  0  0  0  0  0  0  0
   -2.5568   -0.6545   -1.9172 C   0  0  0  0  0  0  0  0  0  0  0  0
   -3.0224   -2.0365   -2.3650 C   0  0  0  0  0  0  0  0  0  0  0  0
   -4.0194   -2.6410   -1.3754 C   0  0  0  0  0  0  0  0  0  0  0  0
   -3.7740   -2.2090    0.0712 C   0  0  0  0  0  0  0  0  0  0  0  0
   -2.3044   -1.8883    0.3162 C   0  0  0  0  0  0  0  0  0  0  0  0
   -0.2911   -0.7548   -0.7329 C   0  0  0  0  0  0  0  0  0  0  0  0
    0.1161    0.7021   -1.0131 C   0  0  0  0  0  0  0  0  0  0  0  0
    1.5368    1.0183   -0.5110 C   0  0  0  0  0  0  0  0  0  0  0  0
    1.6465    0.7474    0.8938 O   0  0  0  0  0  0  0  0  0  0  0  0
    2.9493    1.0347    1.4026 C   0  0  0  0  0  0  0  0  0  0  0  0
    3.9236   -0.0771    1.0989 C   0  0  0  0  0  0  0  0  0  0  0  0
    3.5894   -1.4111    1.3750 C   0  0  0  0  0  0  0  0  0  0  0  0
    4.4941   -2.4393    1.1082 C   0  0  0  0  0  0  0  0  0  0  0  0
    5.7445   -2.1442    0.5685 C   0  0  0  0  0  0  0  0  0  0  0  0
    6.0911   -0.8217    0.2968 C   0  0  0  0  0  0  0  0  0  0  0  0
    5.1868    0.2082    0.5630 C   0  0  0  0  0  0  0  0  0  0  0  0
   -1.2393    5.3331    0.7331 H   0  0  0  0  0  0  0  0  0  0  0  0
   -3.0220    5.1886    0.6857 H   0  0  0  0  0  0  0  0  0  0  0  0
   -2.0863    5.2789   -0.8377 H   0  0  0  0  0  0  0  0  0  0  0  0
   -2.1917    3.0111    1.0698 H   0  0  0  0  0  0  0  0  0  0  0  0
   -1.7624    0.5548    1.2565 H   0  0  0  0  0  0  0  0  0  0  0  0
   -2.9682    1.0906    0.0674 H   0  0  0  0  0  0  0  0  0  0  0  0
   -3.4396   -0.0050   -1.8525 H   0  0  0  0  0  0  0  0  0  0  0  0
   -1.9186   -0.2220   -2.6960 H   0  0  0  0  0  0  0  0  0  0  0  0
   -3.4827   -1.9782   -3.3579 H   0  0  0  0  0  0  0  0  0  0  0  0
   -2.1534   -2.6990   -2.4631 H   0  0  0  0  0  0  0  0  0  0  0  0
   -5.0416   -2.3607   -1.6575 H   0  0  0  0  0  0  0  0  0  0  0  0
   -3.9705   -3.7340   -1.4512 H   0  0  0  0  0  0  0  0  0  0  0  0
   -4.3824   -1.3248    0.2989 H   0  0  0  0  0  0  0  0  0  0  0  0
   -4.1086   -3.0008    0.7511 H   0  0  0  0  0  0  0  0  0  0  0  0
   -1.7113   -2.7839    0.0871 H   0  0  0  0  0  0  0  0  0  0  0  0
   -2.1455   -1.6841    1.3817 H   0  0  0  0  0  0  0  0  0  0  0  0
    0.1788   -1.1246    0.1869 H   0  0  0  0  0  0  0  0  0  0  0  0
    0.0188   -1.4225   -1.5440 H   0  0  0  0  0  0  0  0  0  0  0  0
    0.0688    0.9087   -2.0896 H   0  0  0  0  0  0  0  0  0  0  0  0
    1.7892    2.0678   -0.6932 H   0  0  0  0  0  0  0  0  0  0  0  0
    2.2513    0.3937   -1.0594 H   0  0  0  0  0  0  0  0  0  0  0  0
    2.8645    1.1261    2.4913 H   0  0  0  0  0  0  0  0  0  0  0  0
    3.2986    2.0034    1.0256 H   0  0  0  0  0  0  0  0  0  0  0  0
    2.6143   -1.6493    1.7956 H   0  0  0  0  0  0  0  0  0  0  0  0
    4.2229   -3.4695    1.3223 H   0  0  0  0  0  0  0  0  0  0  0  0
    6.4495   -2.9447    0.3609 H   0  0  0  0  0  0  0  0  0  0  0  0
    7.0675   -0.5919   -0.1219 H   0  0  0  0  0  0  0  0  0  0  0  0
    5.4748    1.2345    0.3466 H   0  0  0  0  0  0  0  0  0  0  0  0
  1  2  1  0
  2  3  1  0
  3  4  2  0
  3  5  1  0
  5  6  1  0
  6  7  1  0
  7  8  1  0
  8  9  1  0
  9 10  1  0
 10 11  1  0
 11 12  1  0
  7 13  1  0
 13 14  1  0
 14 15  1  0
 15 16  1  0
 16 17  1  0
 17 18  1  0
 18 19  2  0
 19 20  1  0
 20 21  2  0
 21 22  1  0
 22 23  2  0
 14  5  1  0
 23 18  1  0
 12  7  1  0
  1 24  1  0
  1 25  1  0
  1 26  1  0
  2 27  1  0
  6 28  1  0
  6 29  1  0
  8 30  1  0
  8 31  1  0
  9 32  1  0
  9 33  1  0
 10 34  1  0
 10 35  1  0
 11 36  1  0
 11 37  1  0
 12 38  1  0
 12 39  1  0
 13 40  1  0
 13 41  1  0
 14 42  1  0
 15 43  1  0
 15 44  1  0
 17 45  1  0
 17 46  1  0
 19 47  1  0
 20 48  1  0
 21 49  1  0
 22 50  1  0
 23 51  1  0
M  END
$$$$
