
     RDKit          3D

 47 49  0  0  0  0  0  0  0  0999 V2000
    4.7894   -2.2487    2.9719 C   0  0  0  0  0  0  0  0  0  0  0  0
    4.4945   -2.3377    1.4850 C   0  0  0  0  0  0  0  0  0  0  0  0
    3.7101   -1.2336    1.0392 O   0  0  0  0  0  0  0  0  0  0  0  0
    4.4700   -0.0426    0.8422 C   0  0  0  0  0  0  0  0  0  0  0  0
    3.6117    1.0953    0.2751 C   0  0  0  0  0  0  0  0  0  0  0  0
    4.1161    2.1828    0.0182 O   0  0  0  0  0  0  0  0  0  0  0  0
    2.2947    0.7256    0.1214 N   0  0  0  0  0  0  0  0  0  0  0  0
    1.2223    1.4719   -0.3532 C   0  0  0  0  0  0  0  0  0  0  0  0
   -0.0532    0.9204   -0.4298 C   0  0  0  0  0  0  0  0  0  0  0  0
   -0.5417   -0.4036   -0.0823 C   0  0  0  0  0  0  0  0  0  0  0  0
    0.2067   -1.2687    0.3646 O   0  0  0  0  0  0  0  0  0  0  0  0
   -1.8932   -0.5556   -0.3088 N   0  0  0  0  0  0  0  0  0  0  0  0
   -2.7136   -1.6824   -0.0956 C   0  0  0  0  0  0  0  0  0  0  0  0
   -2.2438   -2.8957    0.4115 C   0  0  0  0  0  0  0  0  0  0  0  0
   -3.1199   -3.9676    0.5948 C   0  0  0  0  0  0  0  0  0  0  0  0
   -4.4677   -3.8334    0.2727 C   0  0  0  0  0  0  0  0  0  0  0  0
   -4.9500   -2.6257   -0.2351 C   0  0  0  0  0  0  0  0  0  0  0  0
   -4.0810   -1.5464   -0.4221 C   0  0  0  0  0  0  0  0  0  0  0  0
   -4.4501   -0.3151   -0.9144 O   0  0  0  0  0  0  0  0  0  0  0  0
   -5.8209   -0.1362   -1.2488 C   0  0  0  0  0  0  0  0  0  0  0  0
   -0.9404    1.8345   -0.9214 O   0  0  0  0  0  0  0  0  0  0  0  0
   -0.2475    2.9738   -1.1642 C   0  0  0  0  0  0  0  0  0  0  0  0
   -0.8158    4.1411   -1.6760 C   0  0  0  0  0  0  0  0  0  0  0  0
    0.0385    5.2268   -1.8689 C   0  0  0  0  0  0  0  0  0  0  0  0
    1.3922    5.1276   -1.5582 C   0  0  0  0  0  0  0  0  0  0  0  0
    1.9314    3.9369   -1.0438 C   0  0  0  0  0  0  0  0  0  0  0  0
    1.0980    2.8176   -0.8348 C   0  0  0  0  0  0  0  0  0  0  0  0
    5.2822   -3.1605    3.3220 H   0  0  0  0  0  0  0  0  0  0  0  0
    5.4426   -1.4007    3.1980 H   0  0  0  0  0  0  0  0  0  0  0  0
    3.8650   -2.1044    3.5408 H   0  0  0  0  0  0  0  0  0  0  0  0
    5.4165   -2.4202    0.8985 H   0  0  0  0  0  0  0  0  0  0  0  0
    3.9052   -3.2409    1.2959 H   0  0  0  0  0  0  0  0  0  0  0  0
    4.8806    0.3022    1.7961 H   0  0  0  0  0  0  0  0  0  0  0  0
    5.2777   -0.2347    0.1276 H   0  0  0  0  0  0  0  0  0  0  0  0
    2.0882   -0.2396    0.4014 H   0  0  0  0  0  0  0  0  0  0  0  0
   -2.3798    0.2560   -0.6834 H   0  0  0  0  0  0  0  0  0  0  0  0
   -1.2011   -3.0402    0.6744 H   0  0  0  0  0  0  0  0  0  0  0  0
   -2.7448   -4.9085    0.9904 H   0  0  0  0  0  0  0  0  0  0  0  0
   -5.1451   -4.6715    0.4175 H   0  0  0  0  0  0  0  0  0  0  0  0
   -6.0061   -2.5620   -0.4735 H   0  0  0  0  0  0  0  0  0  0  0  0
   -6.4608   -0.2516   -0.3677 H   0  0  0  0  0  0  0  0  0  0  0  0
   -6.1231   -0.8159   -2.0522 H   0  0  0  0  0  0  0  0  0  0  0  0
   -5.9436    0.8872   -1.6160 H   0  0  0  0  0  0  0  0  0  0  0  0
   -1.8718    4.1957   -1.9112 H   0  0  0  0  0  0  0  0  0  0  0  0
   -0.3567    6.1589   -2.2660 H   0  0  0  0  0  0  0  0  0  0  0  0
    2.0474    5.9823   -1.7142 H   0  0  0  0  0  0  0  0  0  0  0  0
    2.9910    3.9073   -0.8174 H   0  0  0  0  0  0  0  0  0  0  0  0
  1  2  1  0
  2  3  1  0
  3  4  1  0
  4  5  1  0
  5  6  2  0
  5  7  1  0
  7  8  1  0
  8  9  2  0
  9 10  1  0
 10 11  2  0
 10 12  1  0
 12 13  1  0
 13 14  2  0
 14 15  1  0
 15 16  2  0
 16 17  1  0
 17 18  2  0
 18 19  1  0
 19 20  1  0
  9 21  1  0
 21 22  1  0
 22 23  2  0
 23 24  1  0
 24 25  2  0
 25 26  1  0
 26 27  2  0
 27  8  1  0
 18 13  1  0
 27 22  1  0
  1 28  1  0
  1 29  1  0
  1 30  1  0
  2 31  1  0
  2 32  1  0
  4 33  1  0
  4 34  1  0
  7 35  1  0
 12 36  1  0
 14 37  1  0
 15 38  1  0
 16 39  1  0
 17 40  1  0
 20 41  1  0
 20 42  1  0
 20 43  1  0
 23 44  1  0
 24 45  1  0
 25 46  1  0
 26 47  1  0
M  END
$$$$
