
     RDKit          3D

 40 41  0  0  0  0  0  0  0  0999 V2000
    5.2993    1.4743    1.8171 C   0  0  0  0  0  0  0  0  0  0  0  0
    5.2514    0.1462    1.0725 C   0  0  0  0  0  0  0  0  0  0  0  0
    4.3282    0.1900   -0.1536 C   0  0  0  0  0  0  0  0  0  0  0  0
    4.4416   -1.1086   -0.9531 C   0  0  0  0  0  0  0  0  0  0  0  0
    2.9459    0.4103    0.2489 N   0  0  0  0  0  0  0  0  0  0  0  0
    2.0061    0.9336   -0.6193 C   0  0  0  0  0  0  0  0  0  0  0  0
    2.2875    1.3920   -1.7237 O   0  0  0  0  0  0  0  0  0  0  0  0
    0.5933    0.9767   -0.0409 C   0  0  0  0  0  0  0  0  0  0  0  0
   -0.4718    0.9877   -1.1097 C   0  0  0  0  0  0  0  0  0  0  0  0
   -1.4796    0.1317   -0.4249 C   0  0  0  0  0  0  0  0  0  0  0  0
   -2.8791    0.0323   -0.9022 C   0  0  0  0  0  0  0  0  0  0  0  0
   -3.2852    0.6445   -2.0926 C   0  0  0  0  0  0  0  0  0  0  0  0
   -4.6103    0.5331   -2.5127 C   0  0  0  0  0  0  0  0  0  0  0  0
   -5.5255   -0.1894   -1.7470 C   0  0  0  0  0  0  0  0  0  0  0  0
   -5.1300   -0.8095   -0.5594 C   0  0  0  0  0  0  0  0  0  0  0  0
   -6.1257   -1.4862    0.0897 O   0  0  0  0  0  0  0  0  0  0  0  0
   -5.7693   -2.1577    1.2923 C   0  0  0  0  0  0  0  0  0  0  0  0
   -3.8041   -0.6973   -0.1389 C   0  0  0  0  0  0  0  0  0  0  0  0
   -1.0305   -0.5225    0.6001 N   0  0  0  0  0  0  0  0  0  0  0  0
    0.3373   -0.1964    0.7369 O   0  0  0  0  0  0  0  0  0  0  0  0
    5.6305    2.2819    1.1565 H   0  0  0  0  0  0  0  0  0  0  0  0
    4.3188    1.7409    2.2234 H   0  0  0  0  0  0  0  0  0  0  0  0
    6.0025    1.4112    2.6537 H   0  0  0  0  0  0  0  0  0  0  0  0
    4.9248   -0.6386    1.7660 H   0  0  0  0  0  0  0  0  0  0  0  0
    6.2699   -0.1084    0.7551 H   0  0  0  0  0  0  0  0  0  0  0  0
    4.6309    1.0197   -0.8044 H   0  0  0  0  0  0  0  0  0  0  0  0
    5.4732   -1.2786   -1.2784 H   0  0  0  0  0  0  0  0  0  0  0  0
    4.1246   -1.9702   -0.3548 H   0  0  0  0  0  0  0  0  0  0  0  0
    3.8087   -1.0781   -1.8464 H   0  0  0  0  0  0  0  0  0  0  0  0
    2.5764   -0.1520    1.0105 H   0  0  0  0  0  0  0  0  0  0  0  0
    0.5134    1.8508    0.6163 H   0  0  0  0  0  0  0  0  0  0  0  0
   -0.1600    0.5027   -2.0400 H   0  0  0  0  0  0  0  0  0  0  0  0
   -0.8339    1.9979   -1.3139 H   0  0  0  0  0  0  0  0  0  0  0  0
   -2.5911    1.2046   -2.7124 H   0  0  0  0  0  0  0  0  0  0  0  0
   -4.9327    1.0054   -3.4375 H   0  0  0  0  0  0  0  0  0  0  0  0
   -6.5580   -0.2744   -2.0790 H   0  0  0  0  0  0  0  0  0  0  0  0
   -5.0158   -2.9300    1.1052 H   0  0  0  0  0  0  0  0  0  0  0  0
   -6.6660   -2.6539    1.6759 H   0  0  0  0  0  0  0  0  0  0  0  0
   -5.4297   -1.4483    2.0542 H   0  0  0  0  0  0  0  0  0  0  0  0
   -3.4661   -1.1673    0.7796 H   0  0  0  0  0  0  0  0  0  0  0  0
  1  2  1  0
  2  3  1  0
  3  4  1  0
  3  5  1  0
  5  6  1  0
  6  7  2  0
  6  8  1  0
  8  9  1  0
  9 10  1  0
 10 11  1  0
 11 12  2  0
 12 13  1  0
 13 14  2  0
 14 15  1  0
 15 16  1  0
 16 17  1  0
 15 18  2  0
 10 19  2  0
 19 20  1  0
 20  8  1  0
 18 11  1  0
  1 21  1  0
  1 22  1  0
  1 23  1  0
  2 24  1  0
  2 25  1  0
  3 26  1  0
  4 27  1  0
  4 28  1  0
  4 29  1  0
  5 30  1  0
  8 31  1  0
  9 32  1  0
  9 33  1  0
 12 34  1  0
 13 35  1  0
 14 36  1  0
 17 37  1  0
 17 38  1  0
 17 39  1  0
 18 40  1  0
M  END
$$$$
