
     RDKit          3D

 47 50  0  0  0  0  0  0  0  0999 V2000
    5.8273   -1.1512    0.5299 C   0  0  0  0  0  0  0  0  0  0  0  0
    4.7816   -0.7147   -0.3388 O   0  0  0  0  0  0  0  0  0  0  0  0
    4.5973    0.6453   -0.4644 C   0  0  0  0  0  0  0  0  0  0  0  0
    5.4556    1.6159    0.0615 C   0  0  0  0  0  0  0  0  0  0  0  0
    5.1761    2.9717   -0.1320 C   0  0  0  0  0  0  0  0  0  0  0  0
    4.0443    3.3603   -0.8449 C   0  0  0  0  0  0  0  0  0  0  0  0
    3.1886    2.3975   -1.3837 C   0  0  0  0  0  0  0  0  0  0  0  0
    3.4561    1.0395   -1.2024 C   0  0  0  0  0  0  0  0  0  0  0  0
    2.6411    0.0071   -1.7262 N   0  0  0  0  0  0  0  0  0  0  0  0
    1.5100    0.1182   -2.5049 C   0  0  0  0  0  0  0  0  0  0  0  0
    0.9456    1.1599   -2.8427 O   0  0  0  0  0  0  0  0  0  0  0  0
    0.9015   -1.2303   -2.8772 C   0  0  0  0  0  0  0  0  0  0  0  0
   -0.1941   -1.4879   -1.9610 N   0  0  0  0  0  0  0  0  0  0  0  0
   -1.4713   -1.0124   -2.2638 C   0  0  0  0  0  0  0  0  0  0  0  0
   -2.5278   -1.1391   -1.5139 N   0  0  0  0  0  0  0  0  0  0  0  0
   -2.2575   -1.7767   -0.3489 C   0  0  0  0  0  0  0  0  0  0  0  0
   -1.0567   -2.2819    0.0888 C   0  0  0  0  0  0  0  0  0  0  0  0
   -1.1984   -2.8580    1.3148 N   0  0  0  0  0  0  0  0  0  0  0  0
   -2.4764   -2.7214    1.6722 N   0  0  0  0  0  0  0  0  0  0  0  0
   -3.1139   -2.0443    0.6835 N   0  0  0  0  0  0  0  0  0  0  0  0
   -4.5306   -1.7393    0.7733 C   0  0  0  0  0  0  0  0  0  0  0  0
   -4.7719   -0.3704    1.3546 C   0  0  0  0  0  0  0  0  0  0  0  0
   -4.6309    0.7848    0.5710 C   0  0  0  0  0  0  0  0  0  0  0  0
   -4.8430    2.0506    1.1266 C   0  0  0  0  0  0  0  0  0  0  0  0
   -5.1993    2.1783    2.4695 C   0  0  0  0  0  0  0  0  0  0  0  0
   -5.3421    1.0386    3.2575 C   0  0  0  0  0  0  0  0  0  0  0  0
   -5.1276   -0.2204    2.6981 C   0  0  0  0  0  0  0  0  0  0  0  0
   -5.2861   -1.3038    3.4705 F   0  0  0  0  0  0  0  0  0  0  0  0
    0.1050   -2.1374   -0.7506 C   0  0  0  0  0  0  0  0  0  0  0  0
    1.2341   -2.5228   -0.4540 O   0  0  0  0  0  0  0  0  0  0  0  0
    6.8102   -0.8710    0.1283 H   0  0  0  0  0  0  0  0  0  0  0  0
    5.7900   -2.2440    0.5813 H   0  0  0  0  0  0  0  0  0  0  0  0
    5.6818   -0.7675    1.5488 H   0  0  0  0  0  0  0  0  0  0  0  0
    6.3487    1.3523    0.6256 H   0  0  0  0  0  0  0  0  0  0  0  0
    5.8417    3.7265    0.2773 H   0  0  0  0  0  0  0  0  0  0  0  0
    3.8229    4.4187   -0.9919 H   0  0  0  0  0  0  0  0  0  0  0  0
    2.3146    2.7447   -1.9431 H   0  0  0  0  0  0  0  0  0  0  0  0
    2.9396   -0.9223   -1.4261 H   0  0  0  0  0  0  0  0  0  0  0  0
    1.6501   -2.0257   -2.8311 H   0  0  0  0  0  0  0  0  0  0  0  0
    0.5322   -1.1686   -3.9066 H   0  0  0  0  0  0  0  0  0  0  0  0
   -1.5448   -0.4965   -3.2362 H   0  0  0  0  0  0  0  0  0  0  0  0
   -4.9596   -1.8090   -0.2370 H   0  0  0  0  0  0  0  0  0  0  0  0
   -5.0080   -2.5235    1.3721 H   0  0  0  0  0  0  0  0  0  0  0  0
   -4.3501    0.7069   -0.4781 H   0  0  0  0  0  0  0  0  0  0  0  0
   -4.7253    2.9383    0.5094 H   0  0  0  0  0  0  0  0  0  0  0  0
   -5.3633    3.1640    2.8972 H   0  0  0  0  0  0  0  0  0  0  0  0
   -5.6174    1.1207    4.3046 H   0  0  0  0  0  0  0  0  0  0  0  0
  1  2  1  0
  2  3  1  0
  3  4  2  0
  4  5  1  0
  5  6  2  0
  6  7  1  0
  7  8  2  0
  8  9  1  0
  9 10  1  0
 10 11  2  0
 10 12  1  0
 12 13  1  0
 13 14  1  0
 14 15  2  0
 15 16  1  0
 16 17  2  0
 17 18  1  0
 18 19  2  0
 19 20  1  0
 20 21  1  0
 21 22  1  0
 22 23  2  0
 23 24  1  0
 24 25  2  0
 25 26  1  0
 26 27  2  0
 27 28  1  0
 17 29  1  0
 29 30  2  0
  8  3  1  0
 29 13  1  0
 20 16  1  0
 27 22  1  0
  1 31  1  0
  1 32  1  0
  1 33  1  0
  4 34  1  0
  5 35  1  0
  6 36  1  0
  7 37  1  0
  9 38  1  0
 12 39  1  0
 12 40  1  0
 14 41  1  0
 21 42  1  0
 21 43  1  0
 23 44  1  0
 24 45  1  0
 25 46  1  0
 26 47  1  0
M  END
$$$$
