
     RDKit          3D

 41 44  0  0  0  0  0  0  0  0999 V2000
   -3.6069    2.8301   -0.4854 C   0  0  0  0  0  0  0  0  0  0  0  0
   -4.2010    1.6253    0.0699 N   0  0  0  0  0  0  0  0  0  0  0  0
   -5.5155    1.6630    0.5155 C   0  0  0  0  0  0  0  0  0  0  0  0
   -6.2197    2.6729    0.5001 O   0  0  0  0  0  0  0  0  0  0  0  0
   -6.0830    0.3171    0.9537 C   0  0  0  0  0  0  0  0  0  0  0  0
   -5.2088   -0.6703    1.4635 O   0  0  0  0  0  0  0  0  0  0  0  0
   -3.9793   -0.6696    0.8677 C   0  0  0  0  0  0  0  0  0  0  0  0
   -3.2381   -1.8425    1.0324 C   0  0  0  0  0  0  0  0  0  0  0  0
   -1.9547   -1.9493    0.4965 C   0  0  0  0  0  0  0  0  0  0  0  0
   -1.4034   -0.8676   -0.1937 C   0  0  0  0  0  0  0  0  0  0  0  0
   -0.0408   -0.9191   -0.7978 C   0  0  0  0  0  0  0  0  0  0  0  0
    0.2291   -0.1463   -1.7175 O   0  0  0  0  0  0  0  0  0  0  0  0
    0.9565   -1.9528   -0.2875 C   0  0  0  0  0  0  0  0  0  0  0  0
    2.3026   -1.4045   -0.3695 N   0  0  0  0  0  0  0  0  0  0  0  0
    3.0543   -1.5820   -1.5057 C   0  0  0  0  0  0  0  0  0  0  0  0
    4.2516   -1.1321   -1.6769 N   0  0  0  0  0  0  0  0  0  0  0  0
    4.8205   -0.3810   -0.6383 C   0  0  0  0  0  0  0  0  0  0  0  0
    6.1151    0.1146   -0.7969 C   0  0  0  0  0  0  0  0  0  0  0  0
    6.6985    0.8693    0.2166 C   0  0  0  0  0  0  0  0  0  0  0  0
    7.9420    1.3398    0.0548 F   0  0  0  0  0  0  0  0  0  0  0  0
    6.0137    1.1452    1.3964 C   0  0  0  0  0  0  0  0  0  0  0  0
    4.7197    0.6565    1.5675 C   0  0  0  0  0  0  0  0  0  0  0  0
    4.1334   -0.1042    0.5477 C   0  0  0  0  0  0  0  0  0  0  0  0
    2.7682   -0.6442    0.6916 C   0  0  0  0  0  0  0  0  0  0  0  0
    2.1116   -0.4149    1.7040 O   0  0  0  0  0  0  0  0  0  0  0  0
   -2.1514    0.3125   -0.3508 C   0  0  0  0  0  0  0  0  0  0  0  0
   -3.4441    0.4271    0.1809 C   0  0  0  0  0  0  0  0  0  0  0  0
   -3.3614    2.6601   -1.5383 H   0  0  0  0  0  0  0  0  0  0  0  0
   -4.2919    3.6811   -0.4328 H   0  0  0  0  0  0  0  0  0  0  0  0
   -2.7054    3.0879    0.0794 H   0  0  0  0  0  0  0  0  0  0  0  0
   -6.8191    0.5195    1.7400 H   0  0  0  0  0  0  0  0  0  0  0  0
   -6.6259   -0.1072    0.1001 H   0  0  0  0  0  0  0  0  0  0  0  0
   -3.6696   -2.6777    1.5804 H   0  0  0  0  0  0  0  0  0  0  0  0
   -1.4210   -2.8858    0.6272 H   0  0  0  0  0  0  0  0  0  0  0  0
    0.7487   -2.2179    0.7528 H   0  0  0  0  0  0  0  0  0  0  0  0
    0.8765   -2.8466   -0.9150 H   0  0  0  0  0  0  0  0  0  0  0  0
    2.5622   -2.1648   -2.3009 H   0  0  0  0  0  0  0  0  0  0  0  0
    6.6694   -0.0832   -1.7087 H   0  0  0  0  0  0  0  0  0  0  0  0
    6.4919    1.7379    2.1703 H   0  0  0  0  0  0  0  0  0  0  0  0
    4.1732    0.8658    2.4841 H   0  0  0  0  0  0  0  0  0  0  0  0
   -1.6978    1.1377   -0.8950 H   0  0  0  0  0  0  0  0  0  0  0  0
  1  2  1  0
  2  3  1  0
  3  4  2  0
  3  5  1  0
  5  6  1  0
  6  7  1  0
  7  8  2  0
  8  9  1  0
  9 10  2  0
 10 11  1  0
 11 12  2  0
 11 13  1  0
 13 14  1  0
 14 15  1  0
 15 16  2  0
 16 17  1  0
 17 18  2  0
 18 19  1  0
 19 20  1  0
 19 21  2  0
 21 22  1  0
 22 23  2  0
 23 24  1  0
 24 25  2  0
 10 26  1  0
 26 27  2  0
 27  2  1  0
 27  7  1  0
 24 14  1  0
 23 17  1  0
  1 28  1  0
  1 29  1  0
  1 30  1  0
  5 31  1  0
  5 32  1  0
  8 33  1  0
  9 34  1  0
 13 35  1  0
 13 36  1  0
 15 37  1  0
 18 38  1  0
 21 39  1  0
 22 40  1  0
 26 41  1  0
M  END
$$$$
