
     RDKit          3D

 47 48  0  0  0  0  0  0  0  0999 V2000
   -4.5919   -0.4914    3.0971 C   0  0  0  0  0  0  0  0  0  0  0  0
   -4.5756   -0.4982    1.5647 C   0  0  0  0  0  0  0  0  0  0  0  0
   -5.6622   -1.4396    1.0436 C   0  0  0  0  0  0  0  0  0  0  0  0
   -3.1682   -0.8844    1.0645 C   0  0  0  0  0  0  0  0  0  0  0  0
   -2.9741   -0.8622   -0.4640 C   0  0  1  0  0  0  0  0  0  0  0  0
   -3.1324    0.5402   -1.0791 C   0  0  0  0  0  0  0  0  0  0  0  0
   -3.0136    0.4474   -2.5018 O   0  0  0  0  0  0  0  0  0  0  0  0
   -1.6973   -1.4743   -0.8613 N   0  0  0  0  0  0  0  0  0  0  0  0
   -0.4686   -0.9753   -0.4893 C   0  0  0  0  0  0  0  0  0  0  0  0
   -0.3099   -0.0355    0.2894 O   0  0  0  0  0  0  0  0  0  0  0  0
    0.7122   -1.6585   -1.1565 C   0  0  0  0  0  0  0  0  0  0  0  0
    1.1648   -0.8166   -2.7059 S   0  0  0  0  0  0  0  0  0  0  0  0
    1.4628    0.8865   -2.1156 C   0  0  0  0  0  0  0  0  0  0  0  0
    2.5948    0.9455   -1.1113 C   0  0  0  0  0  0  0  0  0  0  0  0
    3.8283    0.9680   -1.5063 N   0  0  0  0  0  0  0  0  0  0  0  0
    4.8341    1.0300   -0.5284 C   0  0  0  0  0  0  0  0  0  0  0  0
    6.1690    1.0668   -0.9357 C   0  0  0  0  0  0  0  0  0  0  0  0
    7.2001    1.1252    0.0074 C   0  0  0  0  0  0  0  0  0  0  0  0
    6.9034    1.1460    1.3714 C   0  0  0  0  0  0  0  0  0  0  0  0
    5.5753    1.1083    1.7935 C   0  0  0  0  0  0  0  0  0  0  0  0
    4.5533    1.0524    0.8399 C   0  0  0  0  0  0  0  0  0  0  0  0
    3.1381    1.0058    1.2418 C   0  0  0  0  0  0  0  0  0  0  0  0
    2.8000    0.9740    2.4189 O   0  0  0  0  0  0  0  0  0  0  0  0
    2.2330    0.9858    0.2117 N   0  0  0  0  0  0  0  0  0  0  0  0
   -4.3655   -1.4837    3.5031 H   0  0  0  0  0  0  0  0  0  0  0  0
   -5.5739   -0.1866    3.4752 H   0  0  0  0  0  0  0  0  0  0  0  0
   -3.8512    0.2137    3.4903 H   0  0  0  0  0  0  0  0  0  0  0  0
   -4.8128    0.5192    1.2330 H   0  0  0  0  0  0  0  0  0  0  0  0
   -6.6346   -1.1930    1.4849 H   0  0  0  0  0  0  0  0  0  0  0  0
   -5.7722   -1.3582   -0.0418 H   0  0  0  0  0  0  0  0  0  0  0  0
   -5.4350   -2.4823    1.2893 H   0  0  0  0  0  0  0  0  0  0  0  0
   -2.9244   -1.8900    1.4346 H   0  0  0  0  0  0  0  0  0  0  0  0
   -2.4430   -0.2092    1.5343 H   0  0  0  0  0  0  0  0  0  0  0  0
   -3.7180   -1.5198   -0.9274 H   0  0  0  0  0  0  0  0  0  0  0  0
   -4.1182    0.9588   -0.8597 H   0  0  0  0  0  0  0  0  0  0  0  0
   -2.3668    1.2321   -0.7153 H   0  0  0  0  0  0  0  0  0  0  0  0
   -3.0789    1.3541   -2.8491 H   0  0  0  0  0  0  0  0  0  0  0  0
   -1.7204   -1.9257   -1.7703 H   0  0  0  0  0  0  0  0  0  0  0  0
    1.5594   -1.6905   -0.4650 H   0  0  0  0  0  0  0  0  0  0  0  0
    0.4535   -2.6970   -1.3880 H   0  0  0  0  0  0  0  0  0  0  0  0
    1.7455    1.4908   -2.9841 H   0  0  0  0  0  0  0  0  0  0  0  0
    0.5444    1.3179   -1.7096 H   0  0  0  0  0  0  0  0  0  0  0  0
    6.4041    1.0455   -1.9968 H   0  0  0  0  0  0  0  0  0  0  0  0
    8.2350    1.1522   -0.3247 H   0  0  0  0  0  0  0  0  0  0  0  0
    7.7062    1.1893    2.1035 H   0  0  0  0  0  0  0  0  0  0  0  0
    5.3369    1.1217    2.8544 H   0  0  0  0  0  0  0  0  0  0  0  0
    1.2545    0.8949    0.4856 H   0  0  0  0  0  0  0  0  0  0  0  0
  1  2  1  0
  2  3  1  0
  2  4  1  0
  4  5  1  0
  5  6  1  0
  6  7  1  0
  5  8  1  0
  8  9  1  0
  9 10  2  0
  9 11  1  0
 11 12  1  0
 12 13  1  0
 13 14  1  0
 14 15  2  0
 15 16  1  0
 16 17  2  0
 17 18  1  0
 18 19  2  0
 19 20  1  0
 20 21  2  0
 21 22  1  0
 22 23  2  0
 22 24  1  0
 24 14  1  0
 21 16  1  0
  1 25  1  0
  1 26  1  0
  1 27  1  0
  2 28  1  0
  3 29  1  0
  3 30  1  0
  3 31  1  0
  4 32  1  0
  4 33  1  0
  5 34  1  6
  6 35  1  0
  6 36  1  0
  7 37  1  0
  8 38  1  0
 11 39  1  0
 11 40  1  0
 13 41  1  0
 13 42  1  0
 17 43  1  0
 18 44  1  0
 19 45  1  0
 20 46  1  0
 24 47  1  0
M  END
$$$$
