
     RDKit          3D

 36 38  0  0  0  0  0  0  0  0999 V2000
   -3.0729    1.0163    2.6602 C   0  0  0  0  0  0  0  0  0  0  0  0
   -2.8356    1.6645    1.3058 C   0  0  0  0  0  0  0  0  0  0  0  0
   -1.8953    0.9157    0.5037 N   0  0  0  0  0  0  0  0  0  0  0  0
   -0.5139    1.1335    0.5253 C   0  0  0  0  0  0  0  0  0  0  0  0
    0.0732    1.9818    1.1806 O   0  0  0  0  0  0  0  0  0  0  0  0
    0.1358    0.0999   -0.4195 C   0  0  0  0  0  0  0  0  0  0  0  0
    1.1714   -0.7461    0.3271 C   0  0  0  0  0  0  0  0  0  0  0  0
    2.5758   -0.2051    0.1702 C   0  0  0  0  0  0  0  0  0  0  0  0
    3.3765   -0.6204   -0.9058 C   0  0  0  0  0  0  0  0  0  0  0  0
    4.6671   -0.1128   -1.0611 C   0  0  0  0  0  0  0  0  0  0  0  0
    5.1552    0.8118   -0.1459 C   0  0  0  0  0  0  0  0  0  0  0  0
    6.3938    1.2988   -0.2976 F   0  0  0  0  0  0  0  0  0  0  0  0
    4.3765    1.2398    0.9217 C   0  0  0  0  0  0  0  0  0  0  0  0
    3.0861    0.7324    1.0802 C   0  0  0  0  0  0  0  0  0  0  0  0
   -1.0623   -0.6969   -0.8749 C   0  0  0  0  0  0  0  0  0  0  0  0
   -1.1170   -1.7775   -1.7413 C   0  0  0  0  0  0  0  0  0  0  0  0
   -2.3650   -2.3433   -2.0117 C   0  0  0  0  0  0  0  0  0  0  0  0
   -3.5302   -1.8236   -1.4242 C   0  0  0  0  0  0  0  0  0  0  0  0
   -3.4661   -0.7264   -0.5609 C   0  0  0  0  0  0  0  0  0  0  0  0
   -2.2238   -0.1760   -0.3047 C   0  0  0  0  0  0  0  0  0  0  0  0
   -2.1368    0.9248    3.2210 H   0  0  0  0  0  0  0  0  0  0  0  0
   -3.7698    1.6171    3.2525 H   0  0  0  0  0  0  0  0  0  0  0  0
   -3.4952    0.0122    2.5507 H   0  0  0  0  0  0  0  0  0  0  0  0
   -2.4299    2.6706    1.4628 H   0  0  0  0  0  0  0  0  0  0  0  0
   -3.7771    1.7797    0.7585 H   0  0  0  0  0  0  0  0  0  0  0  0
    0.5513    0.6363   -1.2810 H   0  0  0  0  0  0  0  0  0  0  0  0
    1.1748   -1.7817   -0.0377 H   0  0  0  0  0  0  0  0  0  0  0  0
    0.9297   -0.8195    1.3961 H   0  0  0  0  0  0  0  0  0  0  0  0
    3.0005   -1.3419   -1.6275 H   0  0  0  0  0  0  0  0  0  0  0  0
    5.2934   -0.4301   -1.8884 H   0  0  0  0  0  0  0  0  0  0  0  0
    4.7737    1.9680    1.6213 H   0  0  0  0  0  0  0  0  0  0  0  0
    2.4782    1.0812    1.9135 H   0  0  0  0  0  0  0  0  0  0  0  0
   -0.2199   -2.1786   -2.2023 H   0  0  0  0  0  0  0  0  0  0  0  0
   -2.4377   -3.1942   -2.6858 H   0  0  0  0  0  0  0  0  0  0  0  0
   -4.4926   -2.2786   -1.6478 H   0  0  0  0  0  0  0  0  0  0  0  0
   -4.3722   -0.3313   -0.1170 H   0  0  0  0  0  0  0  0  0  0  0  0
  1  2  1  0
  2  3  1  0
  3  4  1  0
  4  5  2  0
  4  6  1  0
  6  7  1  0
  7  8  1  0
  8  9  2  0
  9 10  1  0
 10 11  2  0
 11 12  1  0
 11 13  1  0
 13 14  2  0
  6 15  1  0
 15 16  2  0
 16 17  1  0
 17 18  2  0
 18 19  1  0
 19 20  2  0
 20  3  1  0
 14  8  1  0
 20 15  1  0
  1 21  1  0
  1 22  1  0
  1 23  1  0
  2 24  1  0
  2 25  1  0
  6 26  1  0
  7 27  1  0
  7 28  1  0
  9 29  1  0
 10 30  1  0
 13 31  1  0
 14 32  1  0
 16 33  1  0
 17 34  1  0
 18 35  1  0
 19 36  1  0
M  END
$$$$
