
     RDKit          3D

 30 32  0  0  0  0  0  0  0  0999 V2000
   -0.5442    2.2604   -1.9463 N   0  0  0  0  0  0  0  0  0  0  0  0
    0.0007    1.9743   -0.7262 C   0  0  0  0  0  0  0  0  0  0  0  0
    0.7538    2.7719   -0.1847 O   0  0  0  0  0  0  0  0  0  0  0  0
   -0.4075    0.7126   -0.1839 C   0  0  0  0  0  0  0  0  0  0  0  0
    0.3205   -0.3972    0.2480 C   0  0  0  0  0  0  0  0  0  0  0  0
    1.7641   -0.5676    0.2281 C   0  0  0  0  0  0  0  0  0  0  0  0
    2.2978   -1.7752   -0.2504 C   0  0  0  0  0  0  0  0  0  0  0  0
    3.6792   -1.9801   -0.2797 C   0  0  0  0  0  0  0  0  0  0  0  0
    4.5273   -0.9808    0.1798 C   0  0  0  0  0  0  0  0  0  0  0  0
    5.8522   -1.1747    0.1523 F   0  0  0  0  0  0  0  0  0  0  0  0
    4.0197    0.2140    0.6751 C   0  0  0  0  0  0  0  0  0  0  0  0
    2.6372    0.4186    0.7057 C   0  0  0  0  0  0  0  0  0  0  0  0
   -0.5186   -1.4368    0.6353 N   0  0  0  0  0  0  0  0  0  0  0  0
   -1.7246   -0.9439    0.5017 C   0  0  0  0  0  0  0  0  0  0  0  0
   -1.6955    0.3274    0.0262 N   0  0  0  0  0  0  0  0  0  0  0  0
   -2.9851    0.9724   -0.1381 C   0  0  0  0  0  0  0  0  0  0  0  0
   -3.9946    0.1937    0.7193 C   0  0  0  0  0  0  0  0  0  0  0  0
   -3.3490   -1.4909    0.8260 S   0  0  0  0  0  6  0  0  0  0  0  0
   -3.4071   -1.9633    2.1892 O   0  0  0  0  0  0  0  0  0  0  0  0
   -3.7761   -2.2418   -0.3337 O   0  0  0  0  0  0  0  0  0  0  0  0
   -0.1255    3.0590   -2.4085 H   0  0  0  0  0  0  0  0  0  0  0  0
   -0.8355    1.5007   -2.5469 H   0  0  0  0  0  0  0  0  0  0  0  0
    1.6338   -2.5651   -0.5977 H   0  0  0  0  0  0  0  0  0  0  0  0
    4.0935   -2.9119   -0.6502 H   0  0  0  0  0  0  0  0  0  0  0  0
    4.6988    0.9769    1.0422 H   0  0  0  0  0  0  0  0  0  0  0  0
    2.2576    1.3475    1.1242 H   0  0  0  0  0  0  0  0  0  0  0  0
   -3.2376    0.9065   -1.2016 H   0  0  0  0  0  0  0  0  0  0  0  0
   -2.9119    2.0200    0.1652 H   0  0  0  0  0  0  0  0  0  0  0  0
   -4.0252    0.5911    1.7389 H   0  0  0  0  0  0  0  0  0  0  0  0
   -4.9984    0.1824    0.2906 H   0  0  0  0  0  0  0  0  0  0  0  0
  1  2  1  0
  2  3  2  0
  2  4  1  0
  4  5  2  0
  5  6  1  0
  6  7  2  0
  7  8  1  0
  8  9  2  0
  9 10  1  0
  9 11  1  0
 11 12  2  0
  5 13  1  0
 13 14  2  0
 14 15  1  0
 15 16  1  0
 16 17  1  0
 17 18  1  0
 18 19  2  0
 18 20  2  0
 15  4  1  0
 12  6  1  0
 18 14  1  0
  1 21  1  0
  1 22  1  0
  7 23  1  0
  8 24  1  0
 11 25  1  0
 12 26  1  0
 16 27  1  0
 16 28  1  0
 17 29  1  0
 17 30  1  0
M  END
$$$$
