
     RDKit          3D

 51 54  0  0  0  0  0  0  0  0999 V2000
   -2.1657    0.1651   -1.4799 O   0  0  0  0  0  0  0  0  0  0  0  0
   -2.4244    0.1456   -0.2740 C   0  0  0  0  0  0  0  0  0  0  0  0
   -2.4939   -1.1639    0.4968 C   0  0  0  0  0  0  0  0  0  0  0  0
   -1.5102   -2.1250    0.0255 N   0  0  0  0  0  0  0  0  0  0  0  0
   -0.1695   -2.1319    0.3187 C   0  0  0  0  0  0  0  0  0  0  0  0
    0.5912   -0.9170    1.2961 S   0  0  0  0  0  0  0  0  0  0  0  0
    2.3456   -1.1761    0.8536 C   0  0  0  0  0  0  0  0  0  0  0  0
    2.6808   -0.6594   -0.5482 C   0  0  0  0  0  0  0  0  0  0  0  0
    2.5992    0.7678   -0.6237 O   0  0  0  0  0  0  0  0  0  0  0  0
    3.7015    1.5134   -0.3107 C   0  0  0  0  0  0  0  0  0  0  0  0
    4.9073    1.0376    0.2070 C   0  0  0  0  0  0  0  0  0  0  0  0
    5.9559    1.9245    0.4744 C   0  0  0  0  0  0  0  0  0  0  0  0
    5.8037    3.2890    0.2326 C   0  0  0  0  0  0  0  0  0  0  0  0
    4.5990    3.7715   -0.2716 C   0  0  0  0  0  0  0  0  0  0  0  0
    3.5546    2.8845   -0.5414 C   0  0  0  0  0  0  0  0  0  0  0  0
    0.4480   -3.1607   -0.2133 N   0  0  0  0  0  0  0  0  0  0  0  0
   -0.5257   -3.8464   -0.8947 C   0  0  0  0  0  0  0  0  0  0  0  0
   -0.4168   -5.0230   -1.6512 C   0  0  0  0  0  0  0  0  0  0  0  0
   -1.5636   -5.5379   -2.2667 C   0  0  0  0  0  0  0  0  0  0  0  0
   -2.7944   -4.8929   -2.1337 C   0  0  0  0  0  0  0  0  0  0  0  0
   -2.9232   -3.7182   -1.3830 C   0  0  0  0  0  0  0  0  0  0  0  0
   -1.7665   -3.2226   -0.7686 C   0  0  0  0  0  0  0  0  0  0  0  0
   -2.6932    1.3180    0.4210 N   0  0  0  0  0  0  0  0  0  0  0  0
   -3.1615    1.4003    1.8078 C   0  0  0  0  0  0  0  0  0  0  0  0
   -3.9091    2.7146    2.0619 C   0  0  0  0  0  0  0  0  0  0  0  0
   -3.1303    3.8850    1.7835 O   0  0  0  0  0  0  0  0  0  0  0  0
   -2.1370    3.7012    0.7625 C   0  0  0  0  0  0  0  0  0  0  0  0
   -2.4872    2.6051   -0.2493 C   0  0  0  0  0  0  0  0  0  0  0  0
   -2.3193   -1.0341    1.5674 H   0  0  0  0  0  0  0  0  0  0  0  0
   -3.4958   -1.5862    0.3733 H   0  0  0  0  0  0  0  0  0  0  0  0
    2.9352   -0.6454    1.6067 H   0  0  0  0  0  0  0  0  0  0  0  0
    2.5938   -2.2390    0.9364 H   0  0  0  0  0  0  0  0  0  0  0  0
    1.9737   -1.0558   -1.2870 H   0  0  0  0  0  0  0  0  0  0  0  0
    3.6621   -1.0184   -0.8803 H   0  0  0  0  0  0  0  0  0  0  0  0
    5.0677   -0.0149    0.4206 H   0  0  0  0  0  0  0  0  0  0  0  0
    6.8955    1.5468    0.8712 H   0  0  0  0  0  0  0  0  0  0  0  0
    6.6215    3.9747    0.4391 H   0  0  0  0  0  0  0  0  0  0  0  0
    4.4705    4.8345   -0.4617 H   0  0  0  0  0  0  0  0  0  0  0  0
    2.6199    3.2624   -0.9509 H   0  0  0  0  0  0  0  0  0  0  0  0
    0.5443   -5.5157   -1.7549 H   0  0  0  0  0  0  0  0  0  0  0  0
   -1.4901   -6.4468   -2.8587 H   0  0  0  0  0  0  0  0  0  0  0  0
   -3.6704   -5.3068   -2.6297 H   0  0  0  0  0  0  0  0  0  0  0  0
   -3.8807   -3.2160   -1.3035 H   0  0  0  0  0  0  0  0  0  0  0  0
   -2.2722    1.3398    2.4458 H   0  0  0  0  0  0  0  0  0  0  0  0
   -3.8144    0.5511    2.0319 H   0  0  0  0  0  0  0  0  0  0  0  0
   -4.2322    2.7722    3.1063 H   0  0  0  0  0  0  0  0  0  0  0  0
   -4.8110    2.7620    1.4397 H   0  0  0  0  0  0  0  0  0  0  0  0
   -1.1911    3.4639    1.2649 H   0  0  0  0  0  0  0  0  0  0  0  0
   -2.0047    4.6612    0.2530 H   0  0  0  0  0  0  0  0  0  0  0  0
   -3.4233    2.8469   -0.7636 H   0  0  0  0  0  0  0  0  0  0  0  0
   -1.6935    2.5157   -0.9976 H   0  0  0  0  0  0  0  0  0  0  0  0
  1  2  2  0
  2  3  1  0
  3  4  1  0
  4  5  1  0
  5  6  1  0
  6  7  1  0
  7  8  1  0
  8  9  1  0
  9 10  1  0
 10 11  2  0
 11 12  1  0
 12 13  2  0
 13 14  1  0
 14 15  2  0
  5 16  2  0
 16 17  1  0
 17 18  2  0
 18 19  1  0
 19 20  2  0
 20 21  1  0
 21 22  2  0
  2 23  1  0
 23 24  1  0
 24 25  1  0
 25 26  1  0
 26 27  1  0
 27 28  1  0
 22  4  1  0
 28 23  1  0
 15 10  1  0
 22 17  1  0
  3 29  1  0
  3 30  1  0
  7 31  1  0
  7 32  1  0
  8 33  1  0
  8 34  1  0
 11 35  1  0
 12 36  1  0
 13 37  1  0
 14 38  1  0
 15 39  1  0
 18 40  1  0
 19 41  1  0
 20 42  1  0
 21 43  1  0
 24 44  1  0
 24 45  1  0
 25 46  1  0
 25 47  1  0
 27 48  1  0
 27 49  1  0
 28 50  1  0
 28 51  1  0
M  END
$$$$
