
     RDKit          3D

 49 51  0  0  0  0  0  0  0  0999 V2000
    5.3864    1.2876    3.1947 C   0  0  0  0  0  0  0  0  0  0  0  0
    5.1720    1.8816    1.9224 O   0  0  0  0  0  0  0  0  0  0  0  0
    4.0293    1.5375    1.2430 C   0  0  0  0  0  0  0  0  0  0  0  0
    3.1539    0.5158    1.6323 C   0  0  0  0  0  0  0  0  0  0  0  0
    2.0122    0.2089    0.8738 C   0  0  0  0  0  0  0  0  0  0  0  0
    1.7352    0.9531   -0.2755 C   0  0  0  0  0  0  0  0  0  0  0  0
    2.6148    1.9773   -0.6716 C   0  0  0  0  0  0  0  0  0  0  0  0
    3.7633    2.2672    0.0716 C   0  0  0  0  0  0  0  0  0  0  0  0
    4.6693    3.2449   -0.2489 O   0  0  0  0  0  0  0  0  0  0  0  0
    4.5269    3.8875   -1.5080 C   0  0  0  0  0  0  0  0  0  0  0  0
    0.4865    0.6895   -1.0644 C   0  0  0  0  0  0  0  0  0  0  0  0
    0.4195   -0.7010   -1.6579 C   0  0  0  0  0  0  0  0  0  0  0  0
    0.3701   -0.8438   -2.8824 O   0  0  0  0  0  0  0  0  0  0  0  0
    0.2660   -1.7740   -0.7760 N   0  0  0  0  0  0  0  0  0  0  0  0
   -0.1461   -3.0630   -1.3686 C   0  0  0  0  0  0  0  0  0  0  0  0
   -1.6658   -3.2751   -1.4509 C   0  0  0  0  0  0  0  0  0  0  0  0
   -2.1494   -4.3012   -1.9232 O   0  0  0  0  0  0  0  0  0  0  0  0
   -2.4388   -2.2670   -0.9229 N   0  0  0  0  0  0  0  0  0  0  0  0
   -3.8715   -2.2655   -1.0926 C   0  0  0  0  0  0  0  0  0  0  0  0
   -4.5108   -1.1913   -0.2526 C   0  0  0  0  0  0  0  0  0  0  0  0
   -5.1309   -1.5474    0.9576 C   0  0  0  0  0  0  0  0  0  0  0  0
   -5.7251   -0.5809    1.7714 C   0  0  0  0  0  0  0  0  0  0  0  0
   -5.7045    0.7582    1.3930 C   0  0  0  0  0  0  0  0  0  0  0  0
   -5.0823    1.1317    0.2031 C   0  0  0  0  0  0  0  0  0  0  0  0
   -4.4842    0.1651   -0.6122 C   0  0  0  0  0  0  0  0  0  0  0  0
   -3.6957    0.7094   -2.0517 Cl  0  0  0  0  0  0  0  0  0  0  0  0
    0.4338   -1.7399    0.5997 C   0  0  0  0  0  0  0  0  0  0  0  0
    1.1431   -0.8773    1.3395 C   0  0  0  0  0  0  0  0  0  0  0  0
    5.5487    0.2083    3.1043 H   0  0  0  0  0  0  0  0  0  0  0  0
    4.5605    1.5090    3.8799 H   0  0  0  0  0  0  0  0  0  0  0  0
    6.2957    1.7252    3.6183 H   0  0  0  0  0  0  0  0  0  0  0  0
    3.3588   -0.0724    2.5199 H   0  0  0  0  0  0  0  0  0  0  0  0
    2.3776    2.5420   -1.5680 H   0  0  0  0  0  0  0  0  0  0  0  0
    4.5530    3.1655   -2.3308 H   0  0  0  0  0  0  0  0  0  0  0  0
    3.6160    4.4933   -1.5403 H   0  0  0  0  0  0  0  0  0  0  0  0
    5.3782    4.5623   -1.6344 H   0  0  0  0  0  0  0  0  0  0  0  0
    0.3997    1.4030   -1.8908 H   0  0  0  0  0  0  0  0  0  0  0  0
   -0.3983    0.8554   -0.4390 H   0  0  0  0  0  0  0  0  0  0  0  0
    0.2788   -3.8811   -0.7733 H   0  0  0  0  0  0  0  0  0  0  0  0
    0.2535   -3.1504   -2.3840 H   0  0  0  0  0  0  0  0  0  0  0  0
   -1.9874   -1.3689   -0.8156 H   0  0  0  0  0  0  0  0  0  0  0  0
   -4.1041   -2.1298   -2.1548 H   0  0  0  0  0  0  0  0  0  0  0  0
   -4.2576   -3.2566   -0.8201 H   0  0  0  0  0  0  0  0  0  0  0  0
   -5.1536   -2.5878    1.2736 H   0  0  0  0  0  0  0  0  0  0  0  0
   -6.2055   -0.8743    2.7026 H   0  0  0  0  0  0  0  0  0  0  0  0
   -6.1681    1.5117    2.0244 H   0  0  0  0  0  0  0  0  0  0  0  0
   -5.0633    2.1803   -0.0823 H   0  0  0  0  0  0  0  0  0  0  0  0
   -0.0275   -2.5737    1.1289 H   0  0  0  0  0  0  0  0  0  0  0  0
    1.1674   -1.0489    2.4161 H   0  0  0  0  0  0  0  0  0  0  0  0
  1  2  1  0
  2  3  1  0
  3  4  2  0
  4  5  1  0
  5  6  2  0
  6  7  1  0
  7  8  2  0
  8  9  1  0
  9 10  1  0
  6 11  1  0
 11 12  1  0
 12 13  2  0
 12 14  1  0
 14 15  1  0
 15 16  1  0
 16 17  2  0
 16 18  1  0
 18 19  1  0
 19 20  1  0
 20 21  2  0
 21 22  1  0
 22 23  2  0
 23 24  1  0
 24 25  2  0
 25 26  1  0
 14 27  1  0
 27 28  2  0
  8  3  1  0
 25 20  1  0
 28  5  1  0
  1 29  1  0
  1 30  1  0
  1 31  1  0
  4 32  1  0
  7 33  1  0
 10 34  1  0
 10 35  1  0
 10 36  1  0
 11 37  1  0
 11 38  1  0
 15 39  1  0
 15 40  1  0
 18 41  1  0
 19 42  1  0
 19 43  1  0
 21 44  1  0
 22 45  1  0
 23 46  1  0
 24 47  1  0
 27 48  1  0
 28 49  1  0
M  END
$$$$
