
     RDKit          3D

 39 40  0  0  0  0  0  0  0  0999 V2000
    6.9789    0.7499    0.4442 C   0  0  0  0  0  0  0  0  0  0  0  0
    5.5046    0.4214    0.5974 C   0  0  0  0  0  0  0  0  0  0  0  0
    4.8645    0.6807   -0.6507 O   0  0  0  0  0  0  0  0  0  0  0  0
    3.5198    0.4319   -0.7241 C   0  0  0  0  0  0  0  0  0  0  0  0
    2.9539    0.6812   -1.9740 C   0  0  0  0  0  0  0  0  0  0  0  0
    1.5918    0.4750   -2.2188 C   0  0  0  0  0  0  0  0  0  0  0  0
    0.7987    0.0101   -1.1594 C   0  0  0  0  0  0  0  0  0  0  0  0
    1.3370   -0.2414    0.1024 C   0  0  0  0  0  0  0  0  0  0  0  0
    2.7159   -0.0316    0.3222 C   0  0  0  0  0  0  0  0  0  0  0  0
    0.2724   -0.6849    0.9278 C   0  0  0  0  0  0  0  0  0  0  0  0
   -0.9017   -0.6547    0.1941 C   0  0  0  0  0  0  0  0  0  0  0  0
   -2.2247   -0.9837    0.6801 C   0  0  0  0  0  0  0  0  0  0  0  0
   -2.4524   -1.9368    1.4165 O   0  0  0  0  0  0  0  0  0  0  0  0
   -3.2019   -0.0945    0.2872 N   0  0  0  0  0  0  0  0  0  0  0  0
   -4.5905   -0.2413    0.6953 C   0  0  0  0  0  0  0  0  0  0  0  0
   -5.3100    1.1016    0.6115 C   0  0  0  0  0  0  0  0  0  0  0  0
   -5.2967   -1.2815   -0.1722 C   0  0  0  0  0  0  0  0  0  0  0  0
   -0.5462   -0.3065   -1.0957 N   0  0  0  0  0  0  0  0  0  0  0  0
   -1.4265   -0.3425   -2.2463 C   0  0  0  0  0  0  0  0  0  0  0  0
    7.1126    1.7982    0.1573 H   0  0  0  0  0  0  0  0  0  0  0  0
    7.4289    0.1427   -0.3483 H   0  0  0  0  0  0  0  0  0  0  0  0
    7.5181    0.5677    1.3781 H   0  0  0  0  0  0  0  0  0  0  0  0
    5.4003   -0.6360    0.8668 H   0  0  0  0  0  0  0  0  0  0  0  0
    5.0772    1.0552    1.3829 H   0  0  0  0  0  0  0  0  0  0  0  0
    3.5881    1.0417   -2.7815 H   0  0  0  0  0  0  0  0  0  0  0  0
    1.1783    0.6727   -3.2019 H   0  0  0  0  0  0  0  0  0  0  0  0
    3.1144   -0.2360    1.3084 H   0  0  0  0  0  0  0  0  0  0  0  0
    0.3396   -0.9666    1.9716 H   0  0  0  0  0  0  0  0  0  0  0  0
   -2.9115    0.7619   -0.1637 H   0  0  0  0  0  0  0  0  0  0  0  0
   -4.6044   -0.5840    1.7369 H   0  0  0  0  0  0  0  0  0  0  0  0
   -6.3491    1.0109    0.9441 H   0  0  0  0  0  0  0  0  0  0  0  0
   -5.3109    1.4897   -0.4133 H   0  0  0  0  0  0  0  0  0  0  0  0
   -4.8150    1.8457    1.2451 H   0  0  0  0  0  0  0  0  0  0  0  0
   -6.3413   -1.4008    0.1335 H   0  0  0  0  0  0  0  0  0  0  0  0
   -4.8096   -2.2591   -0.0923 H   0  0  0  0  0  0  0  0  0  0  0  0
   -5.2799   -0.9922   -1.2290 H   0  0  0  0  0  0  0  0  0  0  0  0
   -1.8677    0.6496   -2.3679 H   0  0  0  0  0  0  0  0  0  0  0  0
   -2.2017   -1.0969   -2.0918 H   0  0  0  0  0  0  0  0  0  0  0  0
   -0.8533   -0.6165   -3.1354 H   0  0  0  0  0  0  0  0  0  0  0  0
  1  2  1  0
  2  3  1  0
  3  4  1  0
  4  5  2  0
  5  6  1  0
  6  7  2  0
  7  8  1  0
  8  9  2  0
  8 10  1  0
 10 11  2  0
 11 12  1  0
 12 13  2  0
 12 14  1  0
 14 15  1  0
 15 16  1  0
 15 17  1  0
 11 18  1  0
 18 19  1  0
  9  4  1  0
 18  7  1  0
  1 20  1  0
  1 21  1  0
  1 22  1  0
  2 23  1  0
  2 24  1  0
  5 25  1  0
  6 26  1  0
  9 27  1  0
 10 28  1  0
 14 29  1  0
 15 30  1  0
 16 31  1  0
 16 32  1  0
 16 33  1  0
 17 34  1  0
 17 35  1  0
 17 36  1  0
 19 37  1  0
 19 38  1  0
 19 39  1  0
M  END
$$$$
