
     RDKit          3D

 30 32  0  0  0  0  0  0  0  0999 V2000
    4.2237   -1.1056    0.1828 C   0  0  0  0  0  0  0  0  0  0  0  0
    3.1681   -0.0507    0.0889 C   0  0  0  0  0  0  0  0  0  0  0  0
    3.4967    1.2870   -0.1756 C   0  0  0  0  0  0  0  0  0  0  0  0
    2.5017    2.2799   -0.2551 C   0  0  0  0  0  0  0  0  0  0  0  0
    1.1541    1.9608   -0.0744 C   0  0  0  0  0  0  0  0  0  0  0  0
    0.8286    0.6402    0.1784 C   0  0  0  0  0  0  0  0  0  0  0  0
    1.8236   -0.3341    0.2640 C   0  0  0  0  0  0  0  0  0  0  0  0
    1.2424   -1.5623    0.5392 N   0  0  0  0  0  0  0  0  0  0  0  0
   -0.1386   -1.4650    0.6442 C   0  0  0  0  0  0  0  0  0  0  0  0
   -0.8891   -2.4029    0.8594 O   0  0  0  0  0  0  0  0  0  0  0  0
   -0.5230    0.0139    0.4288 C   0  0  0  0  0  0  0  0  0  0  0  0
   -1.4798    0.1559   -0.7524 C   0  0  0  0  0  0  0  0  0  0  0  0
   -2.8972   -0.0032   -0.3307 C   0  0  0  0  0  0  0  0  0  0  0  0
   -3.7308   -1.0917   -0.1860 C   0  0  0  0  0  0  0  0  0  0  0  0
   -4.9752   -0.5837    0.2572 C   0  0  0  0  0  0  0  0  0  0  0  0
   -4.8206    0.7790    0.3536 C   0  0  0  0  0  0  0  0  0  0  0  0
   -3.5607    1.1411   -0.0002 O   0  0  0  0  0  0  0  0  0  0  0  0
    5.2199   -0.6949   -0.0118 H   0  0  0  0  0  0  0  0  0  0  0  0
    4.0399   -1.8938   -0.5545 H   0  0  0  0  0  0  0  0  0  0  0  0
    4.2329   -1.5444    1.1857 H   0  0  0  0  0  0  0  0  0  0  0  0
    4.5359    1.5769   -0.3204 H   0  0  0  0  0  0  0  0  0  0  0  0
    2.7887    3.3100   -0.4565 H   0  0  0  0  0  0  0  0  0  0  0  0
    0.3915    2.7317   -0.1278 H   0  0  0  0  0  0  0  0  0  0  0  0
    1.7347   -2.4359    0.6463 H   0  0  0  0  0  0  0  0  0  0  0  0
   -0.9303    0.4060    1.3685 H   0  0  0  0  0  0  0  0  0  0  0  0
   -1.2507   -0.5787   -1.5352 H   0  0  0  0  0  0  0  0  0  0  0  0
   -1.3746    1.1431   -1.2201 H   0  0  0  0  0  0  0  0  0  0  0  0
   -3.4651   -2.1250   -0.3659 H   0  0  0  0  0  0  0  0  0  0  0  0
   -5.8721   -1.1424    0.4832 H   0  0  0  0  0  0  0  0  0  0  0  0
   -5.4747    1.5884    0.6456 H   0  0  0  0  0  0  0  0  0  0  0  0
  1  2  1  0
  2  3  2  0
  3  4  1  0
  4  5  2  0
  5  6  1  0
  6  7  2  0
  7  8  1  0
  8  9  1  0
  9 10  2  0
  9 11  1  0
 11 12  1  0
 12 13  1  0
 13 14  2  0
 14 15  1  0
 15 16  2  0
 16 17  1  0
  7  2  1  0
 17 13  1  0
 11  6  1  0
  1 18  1  0
  1 19  1  0
  1 20  1  0
  3 21  1  0
  4 22  1  0
  5 23  1  0
  8 24  1  0
 11 25  1  0
 12 26  1  0
 12 27  1  0
 14 28  1  0
 15 29  1  0
 16 30  1  0
M  END
$$$$
