
     RDKit          3D

 47 49  0  0  0  0  0  0  0  0999 V2000
    5.9586    1.2086    2.1131 C   0  0  0  0  0  0  0  0  0  0  0  0
    6.1290   -0.2135    1.5942 C   0  0  0  0  0  0  0  0  0  0  0  0
    5.4629   -0.4263    0.2269 C   0  0  0  0  0  0  0  0  0  0  0  0
    5.7953   -1.8161   -0.3173 C   0  0  0  0  0  0  0  0  0  0  0  0
    4.0177   -0.2609    0.3257 N   0  0  0  0  0  0  0  0  0  0  0  0
    3.2569    0.0910   -0.7714 C   0  0  0  0  0  0  0  0  0  0  0  0
    3.7304    0.3481   -1.8723 O   0  0  0  0  0  0  0  0  0  0  0  0
    1.7801    0.1096   -0.5737 C   0  0  0  0  0  0  0  0  0  0  0  0
    1.1994    0.3505    0.6872 C   0  0  0  0  0  0  0  0  0  0  0  0
   -0.1930    0.3530    0.8438 C   0  0  0  0  0  0  0  0  0  0  0  0
   -0.9873    0.1593   -0.2736 C   0  0  0  0  0  0  0  0  0  0  0  0
   -0.4149   -0.0963   -1.5186 C   0  0  0  0  0  0  0  0  0  0  0  0
    0.9623   -0.1149   -1.6897 C   0  0  0  0  0  0  0  0  0  0  0  0
   -1.4608   -0.3909   -2.5425 C   0  0  0  0  0  0  0  0  0  0  0  0
   -2.7483    0.0315   -1.8174 C   0  0  0  0  0  0  0  0  0  0  0  0
   -2.4154    0.0500   -0.3511 N   0  0  0  0  0  0  0  0  0  0  0  0
   -3.3323    1.1200    0.6086 S   0  0  0  0  0  6  0  0  0  0  0  0
   -3.2257    2.4466    0.0349 O   0  0  0  0  0  0  0  0  0  0  0  0
   -3.0416    0.8879    2.0088 O   0  0  0  0  0  0  0  0  0  0  0  0
   -4.9887    0.5326    0.3299 C   0  0  0  0  0  0  0  0  0  0  0  0
   -5.8997    1.3120   -0.3884 C   0  0  0  0  0  0  0  0  0  0  0  0
   -7.1926    0.8324   -0.5973 C   0  0  0  0  0  0  0  0  0  0  0  0
   -7.5686   -0.4120   -0.0866 C   0  0  0  0  0  0  0  0  0  0  0  0
   -6.6565   -1.1812    0.6388 C   0  0  0  0  0  0  0  0  0  0  0  0
   -5.3620   -0.7098    0.8526 C   0  0  0  0  0  0  0  0  0  0  0  0
    4.9046    1.4490    2.2833 H   0  0  0  0  0  0  0  0  0  0  0  0
    6.3684    1.9357    1.4047 H   0  0  0  0  0  0  0  0  0  0  0  0
    6.4870    1.3277    3.0644 H   0  0  0  0  0  0  0  0  0  0  0  0
    5.7152   -0.9127    2.3313 H   0  0  0  0  0  0  0  0  0  0  0  0
    7.2020   -0.4264    1.5158 H   0  0  0  0  0  0  0  0  0  0  0  0
    5.8465    0.3194   -0.4805 H   0  0  0  0  0  0  0  0  0  0  0  0
    5.3481   -1.9698   -1.3053 H   0  0  0  0  0  0  0  0  0  0  0  0
    6.8778   -1.9492   -0.4145 H   0  0  0  0  0  0  0  0  0  0  0  0
    5.4114   -2.6016    0.3431 H   0  0  0  0  0  0  0  0  0  0  0  0
    3.5543   -0.7008    1.1090 H   0  0  0  0  0  0  0  0  0  0  0  0
    1.8174    0.5569    1.5570 H   0  0  0  0  0  0  0  0  0  0  0  0
   -0.6194    0.5137    1.8284 H   0  0  0  0  0  0  0  0  0  0  0  0
    1.4002   -0.3117   -2.6650 H   0  0  0  0  0  0  0  0  0  0  0  0
   -1.4739   -1.4631   -2.7652 H   0  0  0  0  0  0  0  0  0  0  0  0
   -1.3181    0.1763   -3.4667 H   0  0  0  0  0  0  0  0  0  0  0  0
   -3.5623   -0.6701   -2.0232 H   0  0  0  0  0  0  0  0  0  0  0  0
   -3.0466    1.0289   -2.1613 H   0  0  0  0  0  0  0  0  0  0  0  0
   -5.6159    2.2859   -0.7806 H   0  0  0  0  0  0  0  0  0  0  0  0
   -7.9114    1.4306   -1.1525 H   0  0  0  0  0  0  0  0  0  0  0  0
   -8.5794   -0.7801   -0.2476 H   0  0  0  0  0  0  0  0  0  0  0  0
   -6.9582   -2.1450    1.0420 H   0  0  0  0  0  0  0  0  0  0  0  0
   -4.6528   -1.3048    1.4241 H   0  0  0  0  0  0  0  0  0  0  0  0
  1  2  1  0
  2  3  1  0
  3  4  1  0
  3  5  1  0
  5  6  1  0
  6  7  2  0
  6  8  1  0
  8  9  2  0
  9 10  1  0
 10 11  2  0
 11 12  1  0
 12 13  2  0
 12 14  1  0
 14 15  1  0
 15 16  1  0
 16 17  1  0
 17 18  2  0
 17 19  2  0
 17 20  1  0
 20 21  2  0
 21 22  1  0
 22 23  2  0
 23 24  1  0
 24 25  2  0
 13  8  1  0
 25 20  1  0
 16 11  1  0
  1 26  1  0
  1 27  1  0
  1 28  1  0
  2 29  1  0
  2 30  1  0
  3 31  1  0
  4 32  1  0
  4 33  1  0
  4 34  1  0
  5 35  1  0
  9 36  1  0
 10 37  1  0
 13 38  1  0
 14 39  1  0
 14 40  1  0
 15 41  1  0
 15 42  1  0
 21 43  1  0
 22 44  1  0
 23 45  1  0
 24 46  1  0
 25 47  1  0
M  END
$$$$
