
     RDKit          3D

 43 46  0  0  0  0  0  0  0  0999 V2000
   -0.9082   -1.2525   -3.1183 C   0  0  0  0  0  0  0  0  0  0  0  0
    0.0600   -0.8991   -2.0436 C   0  0  0  0  0  0  0  0  0  0  0  0
    1.6590   -1.5380   -2.0857 S   0  0  0  0  0  0  0  0  0  0  0  0
    2.0396   -0.6513   -0.6808 C   0  0  0  0  0  0  0  0  0  0  0  0
    3.3334   -0.8037   -0.2639 N   0  0  0  0  0  0  0  0  0  0  0  0
    3.8121   -0.2035    0.8791 C   0  0  0  0  0  0  0  0  0  0  0  0
    3.1830    0.4748    1.6814 O   0  0  0  0  0  0  0  0  0  0  0  0
    5.2439   -0.4577    1.1685 C   0  0  0  0  0  0  0  0  0  0  0  0
    5.6748   -0.5677    2.4922 C   0  0  0  0  0  0  0  0  0  0  0  0
    7.0209   -0.8085    2.7574 C   0  0  0  0  0  0  0  0  0  0  0  0
    7.8915   -0.9249    1.6850 C   0  0  0  0  0  0  0  0  0  0  0  0
    7.5110   -0.8085    0.3926 N   0  0  0  0  0  0  0  0  0  0  0  0
    6.1980   -0.5617    0.1647 C   0  0  0  0  0  0  0  0  0  0  0  0
    1.0792    0.0715   -0.1747 N   0  0  0  0  0  0  0  0  0  0  0  0
   -0.0725   -0.0838   -0.9282 C   0  0  0  0  0  0  0  0  0  0  0  0
   -1.2859    0.6257   -0.5459 C   0  0  0  0  0  0  0  0  0  0  0  0
   -1.2016    1.9758   -0.1921 C   0  0  0  0  0  0  0  0  0  0  0  0
   -2.3477    2.6771    0.1775 C   0  0  0  0  0  0  0  0  0  0  0  0
   -3.5818    2.0274    0.2213 C   0  0  0  0  0  0  0  0  0  0  0  0
   -3.6921    0.6716   -0.1169 C   0  0  0  0  0  0  0  0  0  0  0  0
   -2.5309   -0.0217   -0.4942 C   0  0  0  0  0  0  0  0  0  0  0  0
   -4.9697    0.0458   -0.0992 N   0  0  0  0  0  0  0  0  0  0  0  0
   -5.1446   -1.3030   -0.6079 C   0  0  0  0  0  0  0  0  0  0  0  0
   -6.0720    0.7306    0.3957 C   0  0  0  0  0  0  0  0  0  0  0  0
   -7.2174    0.2780    0.3996 O   0  0  0  0  0  0  0  0  0  0  0  0
   -5.7550    2.0776    1.0357 C   0  0  0  0  0  0  0  0  0  0  0  0
   -4.6468    2.8150    0.5599 O   0  0  0  0  0  0  0  0  0  0  0  0
   -0.4010   -1.5246   -4.0500 H   0  0  0  0  0  0  0  0  0  0  0  0
   -1.5263   -2.1012   -2.8085 H   0  0  0  0  0  0  0  0  0  0  0  0
   -1.5673   -0.4085   -3.3456 H   0  0  0  0  0  0  0  0  0  0  0  0
    3.8943   -1.4421   -0.8061 H   0  0  0  0  0  0  0  0  0  0  0  0
    4.9659   -0.4654    3.3112 H   0  0  0  0  0  0  0  0  0  0  0  0
    7.3812   -0.8998    3.7764 H   0  0  0  0  0  0  0  0  0  0  0  0
    8.9501   -1.1140    1.8418 H   0  0  0  0  0  0  0  0  0  0  0  0
    5.9493   -0.4295   -0.8838 H   0  0  0  0  0  0  0  0  0  0  0  0
   -0.2392    2.4852   -0.2012 H   0  0  0  0  0  0  0  0  0  0  0  0
   -2.2766    3.7295    0.4398 H   0  0  0  0  0  0  0  0  0  0  0  0
   -2.5731   -1.0800   -0.7298 H   0  0  0  0  0  0  0  0  0  0  0  0
   -6.1960   -1.6041   -0.6066 H   0  0  0  0  0  0  0  0  0  0  0  0
   -4.5929   -2.0029    0.0275 H   0  0  0  0  0  0  0  0  0  0  0  0
   -4.7803   -1.3567   -1.6387 H   0  0  0  0  0  0  0  0  0  0  0  0
   -5.6315    1.9146    2.1135 H   0  0  0  0  0  0  0  0  0  0  0  0
   -6.6368    2.7142    0.9010 H   0  0  0  0  0  0  0  0  0  0  0  0
  1  2  1  0
  2  3  1  0
  3  4  1  0
  4  5  1  0
  5  6  1  0
  6  7  2  0
  6  8  1  0
  8  9  2  0
  9 10  1  0
 10 11  2  0
 11 12  1  0
 12 13  2  0
  4 14  2  0
 14 15  1  0
 15 16  1  0
 16 17  2  0
 17 18  1  0
 18 19  2  0
 19 20  1  0
 20 21  2  0
 20 22  1  0
 22 23  1  0
 22 24  1  0
 24 25  2  0
 24 26  1  0
 26 27  1  0
 15  2  2  0
 21 16  1  0
 13  8  1  0
 27 19  1  0
  1 28  1  0
  1 29  1  0
  1 30  1  0
  5 31  1  0
  9 32  1  0
 10 33  1  0
 11 34  1  0
 13 35  1  0
 17 36  1  0
 18 37  1  0
 21 38  1  0
 23 39  1  0
 23 40  1  0
 23 41  1  0
 26 42  1  0
 26 43  1  0
M  END
$$$$
