
     RDKit          3D

 49 52  0  0  0  0  0  0  0  0999 V2000
    1.7580    0.0988   -0.4080 O   0  0  0  0  0  0  0  0  0  0  0  0
    1.9116   -0.9883    0.1432 C   0  0  0  0  0  0  0  0  0  0  0  0
    3.2604   -1.7100    0.1312 C   0  0  0  0  0  0  0  0  0  0  0  0
    4.3574   -0.7742   -0.1013 N   0  0  0  0  0  0  0  0  0  0  0  0
    4.6357   -0.1686   -1.3486 C   0  0  0  0  0  0  0  0  0  0  0  0
    4.2897   -0.5997   -2.4319 O   0  0  0  0  0  0  0  0  0  0  0  0
    5.4258    1.0570   -1.1277 C   0  0  0  0  0  0  0  0  0  0  0  0
    5.9139    1.9078   -2.1067 C   0  0  0  0  0  0  0  0  0  0  0  0
    6.6442    3.0295   -1.6982 C   0  0  0  0  0  0  0  0  0  0  0  0
    6.8732    3.2836   -0.3322 C   0  0  0  0  0  0  0  0  0  0  0  0
    6.3756    2.4217    0.6477 C   0  0  0  0  0  0  0  0  0  0  0  0
    5.6573    1.3220    0.2158 C   0  0  0  0  0  0  0  0  0  0  0  0
    4.9331    0.0992    1.2149 S   0  0  0  0  0  6  0  0  0  0  0  0
    5.9802   -0.6698    1.8453 O   0  0  0  0  0  0  0  0  0  0  0  0
    3.8301    0.6711    1.9470 O   0  0  0  0  0  0  0  0  0  0  0  0
    0.9293   -1.7156    0.8033 N   0  0  0  0  0  0  0  0  0  0  0  0
   -0.4162   -1.3451    1.0124 C   0  0  0  0  0  0  0  0  0  0  0  0
   -1.2356   -2.2713    1.6755 C   0  0  0  0  0  0  0  0  0  0  0  0
   -2.5828   -1.9897    1.9198 C   0  0  0  0  0  0  0  0  0  0  0  0
   -3.1178   -0.7733    1.4944 C   0  0  0  0  0  0  0  0  0  0  0  0
   -4.8229   -0.4036    1.8182 S   0  0  0  0  0  6  0  0  0  0  0  0
   -5.1889   -1.0966    3.0369 O   0  0  0  0  0  0  0  0  0  0  0  0
   -5.0318    1.0216    1.6858 O   0  0  0  0  0  0  0  0  0  0  0  0
   -5.6229   -1.2172    0.5688 N   0  0  0  0  0  0  0  0  0  0  0  0
   -5.6658   -0.5935   -0.7080 C   0  0  0  0  0  0  0  0  0  0  0  0
   -6.6819    0.3131   -1.0083 C   0  0  0  0  0  0  0  0  0  0  0  0
   -6.6972    0.9501   -2.2500 C   0  0  0  0  0  0  0  0  0  0  0  0
   -5.6956    0.6837   -3.1839 C   0  0  0  0  0  0  0  0  0  0  0  0
   -4.6761   -0.2176   -2.8771 C   0  0  0  0  0  0  0  0  0  0  0  0
   -4.6591   -0.8554   -1.6362 C   0  0  0  0  0  0  0  0  0  0  0  0
   -2.3111    0.1677    0.8538 C   0  0  0  0  0  0  0  0  0  0  0  0
   -0.9646   -0.1245    0.6087 C   0  0  0  0  0  0  0  0  0  0  0  0
    3.2406   -2.4638   -0.6634 H   0  0  0  0  0  0  0  0  0  0  0  0
    3.4167   -2.2383    1.0784 H   0  0  0  0  0  0  0  0  0  0  0  0
    5.7314    1.7112   -3.1596 H   0  0  0  0  0  0  0  0  0  0  0  0
    7.0383    3.7171   -2.4447 H   0  0  0  0  0  0  0  0  0  0  0  0
    7.4425    4.1643   -0.0392 H   0  0  0  0  0  0  0  0  0  0  0  0
    6.5440    2.6100    1.7034 H   0  0  0  0  0  0  0  0  0  0  0  0
    1.1975   -2.6147    1.1838 H   0  0  0  0  0  0  0  0  0  0  0  0
   -0.8391   -3.2256    2.0137 H   0  0  0  0  0  0  0  0  0  0  0  0
   -3.2030   -2.7170    2.4390 H   0  0  0  0  0  0  0  0  0  0  0  0
   -6.4892   -1.6298    0.9126 H   0  0  0  0  0  0  0  0  0  0  0  0
   -7.4524    0.5451   -0.2786 H   0  0  0  0  0  0  0  0  0  0  0  0
   -7.4839    1.6627   -2.4848 H   0  0  0  0  0  0  0  0  0  0  0  0
   -5.7057    1.1846   -4.1490 H   0  0  0  0  0  0  0  0  0  0  0  0
   -3.8926   -0.4205   -3.6029 H   0  0  0  0  0  0  0  0  0  0  0  0
   -3.8633   -1.5583   -1.4070 H   0  0  0  0  0  0  0  0  0  0  0  0
   -2.7168    1.1265    0.5361 H   0  0  0  0  0  0  0  0  0  0  0  0
   -0.3699    0.6332    0.1072 H   0  0  0  0  0  0  0  0  0  0  0  0
  1  2  2  0
  2  3  1  0
  3  4  1  0
  4  5  1  0
  5  6  2  0
  5  7  1  0
  7  8  2  0
  8  9  1  0
  9 10  2  0
 10 11  1  0
 11 12  2  0
 12 13  1  0
 13 14  2  0
 13 15  2  0
  2 16  1  0
 16 17  1  0
 17 18  2  0
 18 19  1  0
 19 20  2  0
 20 21  1  0
 21 22  2  0
 21 23  2  0
 21 24  1  0
 24 25  1  0
 25 26  2  0
 26 27  1  0
 27 28  2  0
 28 29  1  0
 29 30  2  0
 20 31  1  0
 31 32  2  0
 13  4  1  0
 32 17  1  0
 12  7  1  0
 30 25  1  0
  3 33  1  0
  3 34  1  0
  8 35  1  0
  9 36  1  0
 10 37  1  0
 11 38  1  0
 16 39  1  0
 18 40  1  0
 19 41  1  0
 24 42  1  0
 26 43  1  0
 27 44  1  0
 28 45  1  0
 29 46  1  0
 30 47  1  0
 31 48  1  0
 32 49  1  0
M  END
$$$$
