
     RDKit          3D

 46 47  0  0  0  0  0  0  0  0999 V2000
    3.9351   -1.1925    1.9347 C   0  0  0  0  0  0  0  0  0  0  0  0
    4.4254   -0.2552    0.8641 C   0  0  0  0  0  0  0  0  0  0  0  0
    5.8069   -0.0208    0.7588 C   0  0  0  0  0  0  0  0  0  0  0  0
    6.3176    0.8413   -0.2107 C   0  0  0  0  0  0  0  0  0  0  0  0
    5.4545    1.4864   -1.0877 C   0  0  0  0  0  0  0  0  0  0  0  0
    4.0803    1.2742   -0.9914 C   0  0  0  0  0  0  0  0  0  0  0  0
    3.5452    0.4086   -0.0178 C   0  0  0  0  0  0  0  0  0  0  0  0
    2.0457    0.2257    0.0405 C   0  0  0  0  0  0  0  0  0  0  0  0
    1.5313   -0.9604   -1.2215 S   0  0  0  0  0  6  0  0  0  0  0  0
    1.6672   -0.3488   -2.5285 O   0  0  0  0  0  0  0  0  0  0  0  0
    2.1077   -2.2582   -0.9349 O   0  0  0  0  0  0  0  0  0  0  0  0
   -0.1366   -1.0935   -0.9140 N   0  0  0  0  0  0  0  0  0  0  0  0
   -0.5646   -1.8510    0.2837 C   0  0  0  0  0  0  0  0  0  0  0  0
   -1.4992   -1.0170    1.1468 C   0  0  0  0  0  0  0  0  0  0  0  0
   -2.7669   -0.6018    0.3755 C   0  0  0  0  0  0  0  0  0  0  0  0
   -3.4172    0.6338    1.0072 C   0  0  0  0  0  0  0  0  0  0  0  0
   -2.7585    1.3685    1.7469 O   0  0  0  0  0  0  0  0  0  0  0  0
   -4.7418    0.9163    0.6928 N   0  0  0  0  0  0  0  0  0  0  0  0
   -5.3560    2.1072    1.2638 C   0  0  0  0  0  0  0  0  0  0  0  0
   -5.6028    0.1391   -0.1900 C   0  0  0  0  0  0  0  0  0  0  0  0
   -2.4645   -0.3396   -1.1102 C   0  0  0  0  0  0  0  0  0  0  0  0
   -1.0014    0.0283   -1.3337 C   0  0  0  0  0  0  0  0  0  0  0  0
    3.4092   -0.6323    2.7141 H   0  0  0  0  0  0  0  0  0  0  0  0
    4.7640   -1.7289    2.4086 H   0  0  0  0  0  0  0  0  0  0  0  0
    3.2670   -1.9490    1.5132 H   0  0  0  0  0  0  0  0  0  0  0  0
    6.5011   -0.5202    1.4318 H   0  0  0  0  0  0  0  0  0  0  0  0
    7.3898    1.0025   -0.2839 H   0  0  0  0  0  0  0  0  0  0  0  0
    5.8493    2.1506   -1.8522 H   0  0  0  0  0  0  0  0  0  0  0  0
    3.4244    1.7839   -1.6964 H   0  0  0  0  0  0  0  0  0  0  0  0
    1.7163   -0.1410    1.0149 H   0  0  0  0  0  0  0  0  0  0  0  0
    1.5403    1.1755   -0.1588 H   0  0  0  0  0  0  0  0  0  0  0  0
    0.2945   -2.1584    0.8889 H   0  0  0  0  0  0  0  0  0  0  0  0
   -1.0643   -2.7677   -0.0500 H   0  0  0  0  0  0  0  0  0  0  0  0
   -1.7891   -1.5841    2.0397 H   0  0  0  0  0  0  0  0  0  0  0  0
   -0.9444   -0.1430    1.5101 H   0  0  0  0  0  0  0  0  0  0  0  0
   -3.4742   -1.4353    0.4622 H   0  0  0  0  0  0  0  0  0  0  0  0
   -5.6129    2.7917    0.4498 H   0  0  0  0  0  0  0  0  0  0  0  0
   -6.2675    1.8145    1.7942 H   0  0  0  0  0  0  0  0  0  0  0  0
   -4.6979    2.6261    1.9654 H   0  0  0  0  0  0  0  0  0  0  0  0
   -5.9018    0.7759   -1.0286 H   0  0  0  0  0  0  0  0  0  0  0  0
   -6.4944   -0.1642    0.3674 H   0  0  0  0  0  0  0  0  0  0  0  0
   -5.1245   -0.7541   -0.5878 H   0  0  0  0  0  0  0  0  0  0  0  0
   -2.6934   -1.2488   -1.6810 H   0  0  0  0  0  0  0  0  0  0  0  0
   -3.0968    0.4557   -1.5205 H   0  0  0  0  0  0  0  0  0  0  0  0
   -0.7478    0.9387   -0.7813 H   0  0  0  0  0  0  0  0  0  0  0  0
   -0.8545    0.2213   -2.4016 H   0  0  0  0  0  0  0  0  0  0  0  0
  1  2  1  0
  2  3  2  0
  3  4  1  0
  4  5  2  0
  5  6  1  0
  6  7  2  0
  7  8  1  0
  8  9  1  0
  9 10  2  0
  9 11  2  0
  9 12  1  0
 12 13  1  0
 13 14  1  0
 14 15  1  0
 15 16  1  0
 16 17  2  0
 16 18  1  0
 18 19  1  0
 18 20  1  0
 15 21  1  0
 21 22  1  0
  7  2  1  0
 22 12  1  0
  1 23  1  0
  1 24  1  0
  1 25  1  0
  3 26  1  0
  4 27  1  0
  5 28  1  0
  6 29  1  0
  8 30  1  0
  8 31  1  0
 13 32  1  0
 13 33  1  0
 14 34  1  0
 14 35  1  0
 15 36  1  0
 19 37  1  0
 19 38  1  0
 19 39  1  0
 20 40  1  0
 20 41  1  0
 20 42  1  0
 21 43  1  0
 21 44  1  0
 22 45  1  0
 22 46  1  0
M  END
$$$$
