
     RDKit          3D

 43 45  0  0  0  0  0  0  0  0999 V2000
   -7.4998    0.7626    0.9847 C   0  0  0  0  0  0  0  0  0  0  0  0
   -6.2590    0.2556    0.2512 C   0  0  0  0  0  0  0  0  0  0  0  0
   -6.3962    0.5037   -1.2502 C   0  0  0  0  0  0  0  0  0  0  0  0
   -4.9858    0.9166    0.7923 C   0  0  0  0  0  0  0  0  0  0  0  0
   -5.0366    1.8769    1.5526 O   0  0  0  0  0  0  0  0  0  0  0  0
   -3.8461    0.3015    0.3205 N   0  0  0  0  0  0  0  0  0  0  0  0
   -2.5454    0.6392    0.5898 C   0  0  0  0  0  0  0  0  0  0  0  0
   -1.5556   -0.0577    0.0829 N   0  0  0  0  0  0  0  0  0  0  0  0
   -0.3400    0.4661    0.5033 C   0  0  0  0  0  0  0  0  0  0  0  0
    0.9227   -0.1325    0.0773 C   0  0  0  0  0  0  0  0  0  0  0  0
    0.9549   -0.8977   -1.0941 C   0  0  0  0  0  0  0  0  0  0  0  0
    2.1452   -1.4805   -1.5260 C   0  0  0  0  0  0  0  0  0  0  0  0
    3.3192   -1.3021   -0.7944 C   0  0  0  0  0  0  0  0  0  0  0  0
    3.3162   -0.5611    0.3931 C   0  0  0  0  0  0  0  0  0  0  0  0
    2.1082    0.0194    0.8184 C   0  0  0  0  0  0  0  0  0  0  0  0
    4.5143   -0.4457    1.1514 N   0  0  0  0  0  0  0  0  0  0  0  0
    4.5021    0.1573    2.4732 C   0  0  0  0  0  0  0  0  0  0  0  0
    5.7026   -0.9727    0.6626 C   0  0  0  0  0  0  0  0  0  0  0  0
    6.7564   -0.9898    1.3013 O   0  0  0  0  0  0  0  0  0  0  0  0
    5.6555   -1.4550   -0.7908 C   0  0  0  0  0  0  0  0  0  0  0  0
    6.1785   -0.3515   -1.7084 C   0  0  0  0  0  0  0  0  0  0  0  0
    4.4208   -1.9314   -1.3021 O   0  0  0  0  0  0  0  0  0  0  0  0
   -0.4484    1.5815    1.3118 C   0  0  0  0  0  0  0  0  0  0  0  0
   -2.1013    1.9583    1.5664 S   0  0  0  0  0  0  0  0  0  0  0  0
   -8.3984    0.2440    0.6343 H   0  0  0  0  0  0  0  0  0  0  0  0
   -7.4115    0.5914    2.0631 H   0  0  0  0  0  0  0  0  0  0  0  0
   -7.6457    1.8374    0.8299 H   0  0  0  0  0  0  0  0  0  0  0  0
   -6.1775   -0.8239    0.4319 H   0  0  0  0  0  0  0  0  0  0  0  0
   -6.4201    1.5765   -1.4717 H   0  0  0  0  0  0  0  0  0  0  0  0
   -5.5572    0.0734   -1.8068 H   0  0  0  0  0  0  0  0  0  0  0  0
   -7.3161    0.0535   -1.6380 H   0  0  0  0  0  0  0  0  0  0  0  0
   -3.9236   -0.5100   -0.2754 H   0  0  0  0  0  0  0  0  0  0  0  0
    0.0499   -1.0446   -1.6808 H   0  0  0  0  0  0  0  0  0  0  0  0
    2.1578   -2.0741   -2.4367 H   0  0  0  0  0  0  0  0  0  0  0  0
    2.0760    0.5852    1.7435 H   0  0  0  0  0  0  0  0  0  0  0  0
    4.2137    1.2097    2.3887 H   0  0  0  0  0  0  0  0  0  0  0  0
    5.4864    0.1175    2.9482 H   0  0  0  0  0  0  0  0  0  0  0  0
    3.7966   -0.3810    3.1139 H   0  0  0  0  0  0  0  0  0  0  0  0
    6.3448   -2.3066   -0.8470 H   0  0  0  0  0  0  0  0  0  0  0  0
    6.2244   -0.7030   -2.7447 H   0  0  0  0  0  0  0  0  0  0  0  0
    7.1767   -0.0201   -1.4048 H   0  0  0  0  0  0  0  0  0  0  0  0
    5.5162    0.5214   -1.6967 H   0  0  0  0  0  0  0  0  0  0  0  0
    0.3252    2.1925    1.7524 H   0  0  0  0  0  0  0  0  0  0  0  0
  1  2  1  0
  2  3  1  0
  2  4  1  0
  4  5  2  0
  4  6  1  0
  6  7  1  0
  7  8  2  0
  8  9  1  0
  9 10  1  0
 10 11  2  0
 11 12  1  0
 12 13  2  0
 13 14  1  0
 14 15  2  0
 14 16  1  0
 16 17  1  0
 16 18  1  0
 18 19  2  0
 18 20  1  0
 20 21  1  0
 20 22  1  0
  9 23  2  0
 23 24  1  0
 24  7  1  0
 15 10  1  0
 22 13  1  0
  1 25  1  0
  1 26  1  0
  1 27  1  0
  2 28  1  0
  3 29  1  0
  3 30  1  0
  3 31  1  0
  6 32  1  0
 11 33  1  0
 12 34  1  0
 15 35  1  0
 17 36  1  0
 17 37  1  0
 17 38  1  0
 20 39  1  0
 21 40  1  0
 21 41  1  0
 21 42  1  0
 23 43  1  0
M  END
$$$$
