
     RDKit          3D

 49 51  0  0  0  0  0  0  0  0999 V2000
    4.0089    4.2370   -0.1870 C   0  0  0  0  0  0  0  0  0  0  0  0
    3.9224    2.9800    0.6557 C   0  0  0  0  0  0  0  0  0  0  0  0
    4.9052    1.6400   -0.0868 S   0  0  0  0  0  0  0  0  0  0  0  0
    3.6256    0.6401   -0.7890 C   0  0  0  0  0  0  0  0  0  0  0  0
    2.6655    1.2920   -1.3490 N   0  0  0  0  0  0  0  0  0  0  0  0
    1.6187    0.6026   -1.8971 C   0  0  0  0  0  0  0  0  0  0  0  0
    0.7832    1.1405   -2.6170 O   0  0  0  0  0  0  0  0  0  0  0  0
    1.4898   -0.8411   -1.5641 C   0  0  0  0  0  0  0  0  0  0  0  0
    2.5458   -1.4681   -1.0255 C   0  0  0  0  0  0  0  0  0  0  0  0
    3.6948   -0.7446   -0.6924 N   0  0  0  0  0  0  0  0  0  0  0  0
    4.8844   -1.4418   -0.1979 C   0  0  0  0  0  0  0  0  0  0  0  0
    2.4187   -2.8099   -0.7703 N   0  0  0  0  0  0  0  0  0  0  0  0
    1.3754   -3.6237   -1.1165 C   0  0  0  0  0  0  0  0  0  0  0  0
    1.3700   -4.8058   -0.7854 O   0  0  0  0  0  0  0  0  0  0  0  0
    0.3143   -3.0359   -1.9941 C   0  0  0  0  0  0  0  0  0  0  0  0
    0.1805   -1.5168   -1.8727 C   0  0  0  0  0  0  0  0  0  0  0  0
   -0.9011   -1.1217   -0.8739 C   0  0  0  0  0  0  0  0  0  0  0  0
   -2.0060   -0.3716   -1.3112 C   0  0  0  0  0  0  0  0  0  0  0  0
   -3.0039    0.0318   -0.4159 C   0  0  0  0  0  0  0  0  0  0  0  0
   -2.9054   -0.2889    0.9378 C   0  0  0  0  0  0  0  0  0  0  0  0
   -3.7910    0.0576    1.9158 O   0  0  0  0  0  0  0  0  0  0  0  0
   -4.7913    1.0343    1.6299 C   0  0  0  0  0  0  0  0  0  0  0  0
   -5.0168    1.8265    2.9138 C   0  0  0  0  0  0  0  0  0  0  0  0
   -6.0791    0.3351    1.2138 C   0  0  0  0  0  0  0  0  0  0  0  0
   -1.8168   -1.0481    1.3786 C   0  0  0  0  0  0  0  0  0  0  0  0
   -0.8212   -1.4601    0.4864 C   0  0  0  0  0  0  0  0  0  0  0  0
    5.0309    4.5983   -0.2334 H   0  0  0  0  0  0  0  0  0  0  0  0
    3.6660    4.0680   -1.2168 H   0  0  0  0  0  0  0  0  0  0  0  0
    3.3989    5.0320    0.2600 H   0  0  0  0  0  0  0  0  0  0  0  0
    2.8809    2.6768    0.8010 H   0  0  0  0  0  0  0  0  0  0  0  0
    4.3307    3.1845    1.6501 H   0  0  0  0  0  0  0  0  0  0  0  0
    5.1463   -2.2650   -0.8736 H   0  0  0  0  0  0  0  0  0  0  0  0
    4.6916   -1.8481    0.8002 H   0  0  0  0  0  0  0  0  0  0  0  0
    5.7867   -0.8179   -0.1393 H   0  0  0  0  0  0  0  0  0  0  0  0
    3.1366   -3.2869   -0.2439 H   0  0  0  0  0  0  0  0  0  0  0  0
    0.5881   -3.2967   -3.0222 H   0  0  0  0  0  0  0  0  0  0  0  0
   -0.6380   -3.5385   -1.7718 H   0  0  0  0  0  0  0  0  0  0  0  0
   -0.1494   -1.1846   -2.8650 H   0  0  0  0  0  0  0  0  0  0  0  0
   -2.0993   -0.0772   -2.3600 H   0  0  0  0  0  0  0  0  0  0  0  0
   -3.8425    0.5944   -0.8180 H   0  0  0  0  0  0  0  0  0  0  0  0
   -4.4654    1.7523    0.8635 H   0  0  0  0  0  0  0  0  0  0  0  0
   -5.3146    1.1701    3.7425 H   0  0  0  0  0  0  0  0  0  0  0  0
   -4.0897    2.3216    3.2192 H   0  0  0  0  0  0  0  0  0  0  0  0
   -5.7854    2.5913    2.7822 H   0  0  0  0  0  0  0  0  0  0  0  0
   -5.9344   -0.2590    0.3008 H   0  0  0  0  0  0  0  0  0  0  0  0
   -6.4112   -0.3644    1.9935 H   0  0  0  0  0  0  0  0  0  0  0  0
   -6.8784    1.0630    1.0309 H   0  0  0  0  0  0  0  0  0  0  0  0
   -1.7333   -1.3162    2.4343 H   0  0  0  0  0  0  0  0  0  0  0  0
    0.0144   -2.0373    0.8796 H   0  0  0  0  0  0  0  0  0  0  0  0
  1  2  1  0
  2  3  1  0
  3  4  1  0
  4  5  2  0
  5  6  1  0
  6  7  2  0
  6  8  1  0
  8  9  2  0
  9 10  1  0
 10 11  1  0
  9 12  1  0
 12 13  1  0
 13 14  2  0
 13 15  1  0
 15 16  1  0
 16 17  1  0
 17 18  2  0
 18 19  1  0
 19 20  2  0
 20 21  1  0
 21 22  1  0
 22 23  1  0
 22 24  1  0
 20 25  1  0
 25 26  2  0
 10  4  1  0
 26 17  1  0
 16  8  1  0
  1 27  1  0
  1 28  1  0
  1 29  1  0
  2 30  1  0
  2 31  1  0
 11 32  1  0
 11 33  1  0
 11 34  1  0
 12 35  1  0
 15 36  1  0
 15 37  1  0
 16 38  1  0
 18 39  1  0
 19 40  1  0
 22 41  1  0
 23 42  1  0
 23 43  1  0
 23 44  1  0
 24 45  1  0
 24 46  1  0
 24 47  1  0
 25 48  1  0
 26 49  1  0
M  END
$$$$
