
     RDKit          3D

 39 42  0  0  0  0  0  0  0  0999 V2000
    0.5349   -1.6690   -0.0379 O   0  0  0  0  0  0  0  0  0  0  0  0
    0.4692   -0.4595   -0.2761 C   0  0  0  0  0  0  0  0  0  0  0  0
    1.5655    0.4215    0.1634 C   0  0  0  0  0  0  0  0  0  0  0  0
    2.6703    0.0144    0.9650 C   0  0  0  0  0  0  0  0  0  0  0  0
    3.4341    1.1413    1.1148 C   0  0  0  0  0  0  0  0  0  0  0  0
    4.7566    1.2567    1.9092 C   0  0  0  0  0  0  0  0  0  0  0  0
    5.9855    1.7415    1.1851 C   0  0  0  0  0  0  0  0  0  0  0  0
    5.8893    0.3073    1.6174 C   0  0  0  0  0  0  0  0  0  0  0  0
    2.8413    2.1685    0.4567 O   0  0  0  0  0  0  0  0  0  0  0  0
    1.6786    1.7252   -0.1418 N   0  0  0  0  0  0  0  0  0  0  0  0
   -0.6295    0.0664   -0.9545 N   0  0  0  0  0  0  0  0  0  0  0  0
   -0.8033    1.4211   -1.4636 C   0  0  0  0  0  0  0  0  0  0  0  0
   -2.1718    1.4242   -2.1311 C   0  0  0  0  0  0  0  0  0  0  0  0
   -2.3429   -0.0235   -2.5707 C   0  0  0  0  0  0  0  0  0  0  0  0
   -1.6842   -0.8209   -1.4375 C   0  0  0  0  0  0  0  0  0  0  0  0
   -2.6947   -1.2203   -0.3685 C   0  0  0  0  0  0  0  0  0  0  0  0
   -2.9292   -0.4516    0.7837 C   0  0  0  0  0  0  0  0  0  0  0  0
   -3.8858   -0.8458    1.7221 C   0  0  0  0  0  0  0  0  0  0  0  0
   -4.6141   -2.0100    1.5120 C   0  0  0  0  0  0  0  0  0  0  0  0
   -5.5317   -2.3860    2.4126 F   0  0  0  0  0  0  0  0  0  0  0  0
   -4.4005   -2.7924    0.3842 C   0  0  0  0  0  0  0  0  0  0  0  0
   -3.4460   -2.3968   -0.5539 C   0  0  0  0  0  0  0  0  0  0  0  0
    2.8618   -0.9715    1.3615 H   0  0  0  0  0  0  0  0  0  0  0  0
    4.6305    1.5816    2.9356 H   0  0  0  0  0  0  0  0  0  0  0  0
    5.9117    1.9590    0.1234 H   0  0  0  0  0  0  0  0  0  0  0  0
    6.6654    2.3931    1.7205 H   0  0  0  0  0  0  0  0  0  0  0  0
    6.5065   -0.0128    2.4492 H   0  0  0  0  0  0  0  0  0  0  0  0
    5.7616   -0.4435    0.8471 H   0  0  0  0  0  0  0  0  0  0  0  0
   -0.7573    2.1510   -0.6514 H   0  0  0  0  0  0  0  0  0  0  0  0
   -0.0130    1.6197   -2.1954 H   0  0  0  0  0  0  0  0  0  0  0  0
   -2.9489    1.6941   -1.4060 H   0  0  0  0  0  0  0  0  0  0  0  0
   -2.2287    2.1303   -2.9648 H   0  0  0  0  0  0  0  0  0  0  0  0
   -3.3883   -0.2852   -2.7595 H   0  0  0  0  0  0  0  0  0  0  0  0
   -1.7816   -0.1807   -3.5011 H   0  0  0  0  0  0  0  0  0  0  0  0
   -1.2213   -1.7333   -1.8358 H   0  0  0  0  0  0  0  0  0  0  0  0
   -2.3666    0.4609    0.9671 H   0  0  0  0  0  0  0  0  0  0  0  0
   -4.0682   -0.2525    2.6127 H   0  0  0  0  0  0  0  0  0  0  0  0
   -4.9719   -3.7045    0.2462 H   0  0  0  0  0  0  0  0  0  0  0  0
   -3.2830   -3.0180   -1.4324 H   0  0  0  0  0  0  0  0  0  0  0  0
  1  2  2  0
  2  3  1  0
  3  4  1  0
  4  5  2  0
  5  6  1  0
  6  7  1  0
  7  8  1  0
  5  9  1  0
  9 10  1  0
  2 11  1  0
 11 12  1  0
 12 13  1  0
 13 14  1  0
 14 15  1  0
 15 16  1  0
 16 17  2  0
 17 18  1  0
 18 19  2  0
 19 20  1  0
 19 21  1  0
 21 22  2  0
 10  3  2  0
 15 11  1  0
 22 16  1  0
  8  6  1  0
  4 23  1  0
  6 24  1  0
  7 25  1  0
  7 26  1  0
  8 27  1  0
  8 28  1  0
 12 29  1  0
 12 30  1  0
 13 31  1  0
 13 32  1  0
 14 33  1  0
 14 34  1  0
 15 35  1  0
 17 36  1  0
 18 37  1  0
 21 38  1  0
 22 39  1  0
M  END
$$$$
