
     RDKit          3D

 51 53  0  0  0  0  0  0  0  0999 V2000
    2.7782   -2.2463    0.9868 C   0  0  0  0  0  0  0  0  0  0  0  0
    2.6952   -1.1662   -0.0748 C   0  0  0  0  0  0  0  0  0  0  0  0
    3.3456    0.1045    0.3132 N   0  0  0  0  0  0  0  0  0  0  0  0
    4.8124    0.0619    0.5182 C   0  0  0  0  0  0  0  0  0  0  0  0
    5.2241   -0.0627    1.9766 C   0  0  0  0  0  0  0  0  0  0  0  0
    2.4558    1.2757    1.1551 S   0  0  0  0  0  6  0  0  0  0  0  0
    3.2569    2.4742    1.2795 O   0  0  0  0  0  0  0  0  0  0  0  0
    1.8946    0.6308    2.3239 O   0  0  0  0  0  0  0  0  0  0  0  0
    1.1128    1.6489    0.0328 C   0  0  0  0  0  0  0  0  0  0  0  0
   -0.1825    1.2887    0.4339 C   0  0  0  0  0  0  0  0  0  0  0  0
   -1.2575    1.5439   -0.4158 C   0  0  0  0  0  0  0  0  0  0  0  0
   -2.6219    1.1621   -0.0036 C   0  0  0  0  0  0  0  0  0  0  0  0
   -3.3462    2.0653    0.5784 N   0  0  0  0  0  0  0  0  0  0  0  0
   -4.6032    1.6968    0.9442 N   0  0  0  0  0  0  0  0  0  0  0  0
   -5.1722    0.4678    0.7426 C   0  0  0  0  0  0  0  0  0  0  0  0
   -6.3164    0.2088    1.1023 O   0  0  0  0  0  0  0  0  0  0  0  0
   -4.3216   -0.5410    0.0578 C   0  0  0  0  0  0  0  0  0  0  0  0
   -3.0641   -0.2316   -0.3040 C   0  0  0  0  0  0  0  0  0  0  0  0
   -2.1513   -1.2181   -0.9808 C   0  0  0  0  0  0  0  0  0  0  0  0
   -2.6686   -2.6591   -0.9260 C   0  0  0  0  0  0  0  0  0  0  0  0
   -4.1636   -2.7217   -1.2131 C   0  0  0  0  0  0  0  0  0  0  0  0
   -4.9516   -1.8805   -0.2067 C   0  0  0  0  0  0  0  0  0  0  0  0
   -1.0689    2.1861   -1.6381 C   0  0  0  0  0  0  0  0  0  0  0  0
    0.2192    2.5583   -2.0262 C   0  0  0  0  0  0  0  0  0  0  0  0
    1.3309    2.2918   -1.2049 C   0  0  0  0  0  0  0  0  0  0  0  0
    2.6867    2.7467   -1.6708 C   0  0  0  0  0  0  0  0  0  0  0  0
    3.8101   -2.5743    1.1425 H   0  0  0  0  0  0  0  0  0  0  0  0
    2.3778   -1.9093    1.9466 H   0  0  0  0  0  0  0  0  0  0  0  0
    2.2028   -3.1232    0.6724 H   0  0  0  0  0  0  0  0  0  0  0  0
    3.1606   -1.5242   -1.0010 H   0  0  0  0  0  0  0  0  0  0  0  0
    1.6451   -0.9907   -0.3273 H   0  0  0  0  0  0  0  0  0  0  0  0
    5.2358   -0.7763   -0.0479 H   0  0  0  0  0  0  0  0  0  0  0  0
    5.2507    0.9684    0.0848 H   0  0  0  0  0  0  0  0  0  0  0  0
    6.3095   -0.1888    2.0468 H   0  0  0  0  0  0  0  0  0  0  0  0
    4.9634    0.8312    2.5506 H   0  0  0  0  0  0  0  0  0  0  0  0
    4.7540   -0.9191    2.4660 H   0  0  0  0  0  0  0  0  0  0  0  0
   -0.3601    0.8167    1.3981 H   0  0  0  0  0  0  0  0  0  0  0  0
   -5.1657    2.4006    1.4102 H   0  0  0  0  0  0  0  0  0  0  0  0
   -1.1568   -1.2099   -0.5225 H   0  0  0  0  0  0  0  0  0  0  0  0
   -2.0312   -0.9211   -2.0302 H   0  0  0  0  0  0  0  0  0  0  0  0
   -2.1200   -3.2745   -1.6480 H   0  0  0  0  0  0  0  0  0  0  0  0
   -2.4709   -3.0822    0.0676 H   0  0  0  0  0  0  0  0  0  0  0  0
   -4.3553   -2.3560   -2.2301 H   0  0  0  0  0  0  0  0  0  0  0  0
   -4.5112   -3.7604   -1.1768 H   0  0  0  0  0  0  0  0  0  0  0  0
   -5.0251   -2.4251    0.7430 H   0  0  0  0  0  0  0  0  0  0  0  0
   -5.9717   -1.7571   -0.5894 H   0  0  0  0  0  0  0  0  0  0  0  0
   -1.9177    2.4115   -2.2791 H   0  0  0  0  0  0  0  0  0  0  0  0
    0.3497    3.0727   -2.9775 H   0  0  0  0  0  0  0  0  0  0  0  0
    3.4123    1.9308   -1.6367 H   0  0  0  0  0  0  0  0  0  0  0  0
    2.6538    3.0887   -2.7116 H   0  0  0  0  0  0  0  0  0  0  0  0
    3.0373    3.5867   -1.0646 H   0  0  0  0  0  0  0  0  0  0  0  0
  1  2  1  0
  2  3  1  0
  3  4  1  0
  4  5  1  0
  3  6  1  0
  6  7  2  0
  6  8  2  0
  6  9  1  0
  9 10  2  0
 10 11  1  0
 11 12  1  0
 12 13  2  0
 13 14  1  0
 14 15  1  0
 15 16  2  0
 15 17  1  0
 17 18  2  0
 18 19  1  0
 19 20  1  0
 20 21  1  0
 21 22  1  0
 11 23  2  0
 23 24  1  0
 24 25  2  0
 25 26  1  0
 25  9  1  0
 18 12  1  0
 22 17  1  0
  1 27  1  0
  1 28  1  0
  1 29  1  0
  2 30  1  0
  2 31  1  0
  4 32  1  0
  4 33  1  0
  5 34  1  0
  5 35  1  0
  5 36  1  0
 10 37  1  0
 14 38  1  0
 19 39  1  0
 19 40  1  0
 20 41  1  0
 20 42  1  0
 21 43  1  0
 21 44  1  0
 22 45  1  0
 22 46  1  0
 23 47  1  0
 24 48  1  0
 26 49  1  0
 26 50  1  0
 26 51  1  0
M  END
$$$$
