
     RDKit          3D

 56 59  0  0  0  0  0  0  0  0999 V2000
    6.0158    2.4275    2.5339 C   0  0  0  0  0  0  0  0  0  0  0  0
    6.6874    1.4113    1.7973 O   0  0  0  0  0  0  0  0  0  0  0  0
    5.9409    0.7137    0.8909 C   0  0  0  0  0  0  0  0  0  0  0  0
    6.6352   -0.2814    0.2050 C   0  0  0  0  0  0  0  0  0  0  0  0
    5.9921   -1.0778   -0.7449 C   0  0  0  0  0  0  0  0  0  0  0  0
    4.6396   -0.8801   -1.0324 C   0  0  0  0  0  0  0  0  0  0  0  0
    3.9187   -1.6170   -1.9405 O   0  0  0  0  0  0  0  0  0  0  0  0
    4.6051   -2.6479   -2.6397 C   0  0  0  0  0  0  0  0  0  0  0  0
    3.9263    0.1320   -0.3602 C   0  0  0  0  0  0  0  0  0  0  0  0
    2.4566    0.3393   -0.6531 C   0  0  0  0  0  0  0  0  0  0  0  0
    1.5552   -0.6331    0.0949 C   0  0  0  0  0  0  0  0  0  0  0  0
    0.4078    0.2921    0.4002 C   0  0  0  0  0  0  0  0  0  0  0  0
   -0.8854   -0.2316    0.8700 C   0  0  0  0  0  0  0  0  0  0  0  0
   -0.9688   -0.9324    2.0047 C   0  0  0  0  0  0  0  0  0  0  0  0
    0.1126   -1.2407    2.7813 O   0  0  0  0  0  0  0  0  0  0  0  0
   -2.1618   -1.3827    2.4641 N   0  0  0  0  0  0  0  0  0  0  0  0
   -3.3655   -1.0964    1.8815 C   0  0  0  0  0  0  0  0  0  0  0  0
   -4.3841   -1.5871    2.3645 O   0  0  0  0  0  0  0  0  0  0  0  0
   -3.3277   -0.2685    0.7702 N   0  0  0  0  0  0  0  0  0  0  0  0
   -4.6112    0.0457    0.1181 C   0  0  0  0  0  0  0  0  0  0  0  0
   -4.9410   -0.9332   -1.0280 C   0  0  0  0  0  0  0  0  0  0  0  0
   -5.8828   -0.3390   -2.0800 C   0  0  0  0  0  0  0  0  0  0  0  0
   -6.8658    0.6540   -1.4699 C   0  0  0  0  0  0  0  0  0  0  0  0
   -6.1572    1.8354   -0.8022 C   0  0  0  0  0  0  0  0  0  0  0  0
   -4.7363    1.5121   -0.3281 C   0  0  0  0  0  0  0  0  0  0  0  0
   -2.1335    0.0095    0.1101 C   0  0  0  0  0  0  0  0  0  0  0  0
   -2.0685    0.3810   -1.0599 O   0  0  0  0  0  0  0  0  0  0  0  0
    0.6511    1.5546    0.2073 N   0  0  0  0  0  0  0  0  0  0  0  0
    1.9428    1.6437   -0.2395 N   0  0  0  0  0  0  0  0  0  0  0  0
    4.5899    0.9125    0.6112 C   0  0  0  0  0  0  0  0  0  0  0  0
    5.2090    2.0062    3.1436 H   0  0  0  0  0  0  0  0  0  0  0  0
    6.7413    2.8816    3.2140 H   0  0  0  0  0  0  0  0  0  0  0  0
    5.6438    3.2171    1.8721 H   0  0  0  0  0  0  0  0  0  0  0  0
    7.6894   -0.4431    0.4178 H   0  0  0  0  0  0  0  0  0  0  0  0
    6.5806   -1.8431   -1.2396 H   0  0  0  0  0  0  0  0  0  0  0  0
    3.8919   -3.1198   -3.3200 H   0  0  0  0  0  0  0  0  0  0  0  0
    5.4228   -2.2422   -3.2443 H   0  0  0  0  0  0  0  0  0  0  0  0
    4.9658   -3.4144   -1.9492 H   0  0  0  0  0  0  0  0  0  0  0  0
    2.2735    0.2905   -1.7344 H   0  0  0  0  0  0  0  0  0  0  0  0
    1.2450   -1.4814   -0.5220 H   0  0  0  0  0  0  0  0  0  0  0  0
    2.0001   -0.9914    1.0283 H   0  0  0  0  0  0  0  0  0  0  0  0
   -0.2095   -1.4797    3.6653 H   0  0  0  0  0  0  0  0  0  0  0  0
   -2.2310   -1.9797    3.2770 H   0  0  0  0  0  0  0  0  0  0  0  0
   -5.3947   -0.0895    0.8773 H   0  0  0  0  0  0  0  0  0  0  0  0
   -5.3981   -1.8314   -0.5934 H   0  0  0  0  0  0  0  0  0  0  0  0
   -4.0347   -1.2857   -1.5342 H   0  0  0  0  0  0  0  0  0  0  0  0
   -5.2911    0.1695   -2.8518 H   0  0  0  0  0  0  0  0  0  0  0  0
   -6.4257   -1.1482   -2.5846 H   0  0  0  0  0  0  0  0  0  0  0  0
   -7.4824    0.1354   -0.7253 H   0  0  0  0  0  0  0  0  0  0  0  0
   -7.5545    1.0258   -2.2380 H   0  0  0  0  0  0  0  0  0  0  0  0
   -6.7642    2.1749    0.0461 H   0  0  0  0  0  0  0  0  0  0  0  0
   -6.1103    2.6818   -1.4973 H   0  0  0  0  0  0  0  0  0  0  0  0
   -4.0470    1.7291   -1.1514 H   0  0  0  0  0  0  0  0  0  0  0  0
   -4.4601    2.1896    0.4898 H   0  0  0  0  0  0  0  0  0  0  0  0
    2.1317    2.4610   -0.8173 H   0  0  0  0  0  0  0  0  0  0  0  0
    4.0206    1.6712    1.1412 H   0  0  0  0  0  0  0  0  0  0  0  0
  1  2  1  0
  2  3  1  0
  3  4  2  0
  4  5  1  0
  5  6  2  0
  6  7  1  0
  7  8  1  0
  6  9  1  0
  9 10  1  0
 10 11  1  0
 11 12  1  0
 12 13  1  0
 13 14  2  0
 14 15  1  0
 14 16  1  0
 16 17  1  0
 17 18  2  0
 17 19  1  0
 19 20  1  0
 20 21  1  0
 21 22  1  0
 22 23  1  0
 23 24  1  0
 24 25  1  0
 19 26  1  0
 26 27  2  0
 12 28  2  0
 28 29  1  0
  9 30  2  0
 30  3  1  0
 29 10  1  0
 26 13  1  0
 25 20  1  0
  1 31  1  0
  1 32  1  0
  1 33  1  0
  4 34  1  0
  5 35  1  0
  8 36  1  0
  8 37  1  0
  8 38  1  0
 10 39  1  0
 11 40  1  0
 11 41  1  0
 15 42  1  0
 16 43  1  0
 20 44  1  0
 21 45  1  0
 21 46  1  0
 22 47  1  0
 22 48  1  0
 23 49  1  0
 23 50  1  0
 24 51  1  0
 24 52  1  0
 25 53  1  0
 25 54  1  0
 29 55  1  0
 30 56  1  0
M  END
$$$$
