
     RDKit          3D

 51 53  0  0  0  0  0  0  0  0999 V2000
    6.8556   -1.4668    3.0082 N   0  0  0  0  0  0  0  0  0  0  0  0
    6.9522   -0.5918    1.9619 C   0  0  0  0  0  0  0  0  0  0  0  0
    8.0340   -0.0993    1.6634 O   0  0  0  0  0  0  0  0  0  0  0  0
    5.7156   -0.2994    1.1872 C   0  0  0  0  0  0  0  0  0  0  0  0
    4.4378   -0.4350    1.7394 C   0  0  0  0  0  0  0  0  0  0  0  0
    3.3054   -0.1353    0.9674 C   0  0  0  0  0  0  0  0  0  0  0  0
    3.4365    0.3100   -0.3589 C   0  0  0  0  0  0  0  0  0  0  0  0
    2.2499    0.5887   -1.0750 N   0  0  0  0  0  0  0  0  0  0  0  0
    2.1477    1.1011   -2.3586 C   0  0  0  0  0  0  0  0  0  0  0  0
    3.0861    1.4595   -3.0656 O   0  0  0  0  0  0  0  0  0  0  0  0
    0.7196    1.1922   -2.8997 C   0  0  0  0  0  0  0  0  0  0  0  0
   -0.1785    2.0964   -2.0421 C   0  0  0  0  0  0  0  0  0  0  0  0
   -1.5377    1.4565   -1.7833 C   0  0  0  0  0  0  0  0  0  0  0  0
   -1.3159    0.1582   -1.0883 N   0  0  0  0  0  0  0  0  0  0  0  0
   -2.7495   -0.5673   -0.4383 S   0  0  0  0  0  6  0  0  0  0  0  0
   -3.7283   -0.5514   -1.5116 O   0  0  0  0  0  0  0  0  0  0  0  0
   -2.3109   -1.8053    0.1785 O   0  0  0  0  0  0  0  0  0  0  0  0
   -3.2433    0.5826    0.8705 C   0  0  0  0  0  0  0  0  0  0  0  0
   -4.5228    0.0788    1.4999 C   0  0  0  0  0  0  0  0  0  0  0  0
   -4.4925   -0.8958    2.5079 C   0  0  0  0  0  0  0  0  0  0  0  0
   -5.6826   -1.3851    3.0597 C   0  0  0  0  0  0  0  0  0  0  0  0
   -6.9062   -0.9021    2.6105 C   0  0  0  0  0  0  0  0  0  0  0  0
   -8.3647   -1.5141    3.2825 Cl  0  0  0  0  0  0  0  0  0  0  0  0
   -6.9548    0.0700    1.6134 C   0  0  0  0  0  0  0  0  0  0  0  0
   -5.7668    0.5575    1.0582 C   0  0  0  0  0  0  0  0  0  0  0  0
   -0.5386   -0.8297   -1.9170 C   0  0  0  0  0  0  0  0  0  0  0  0
    0.1256   -0.2012   -3.1371 C   0  0  0  0  0  0  0  0  0  0  0  0
    4.7179    0.4459   -0.8996 C   0  0  0  0  0  0  0  0  0  0  0  0
    5.8498    0.1493   -0.1312 C   0  0  0  0  0  0  0  0  0  0  0  0
    7.7468   -1.7517    3.4043 H   0  0  0  0  0  0  0  0  0  0  0  0
    6.0819   -2.1098    3.0970 H   0  0  0  0  0  0  0  0  0  0  0  0
    4.3118   -0.7438    2.7758 H   0  0  0  0  0  0  0  0  0  0  0  0
    2.3259   -0.2460    1.4282 H   0  0  0  0  0  0  0  0  0  0  0  0
    1.3862    0.4398   -0.5666 H   0  0  0  0  0  0  0  0  0  0  0  0
    0.8053    1.6646   -3.8909 H   0  0  0  0  0  0  0  0  0  0  0  0
    0.2995    2.3407   -1.0812 H   0  0  0  0  0  0  0  0  0  0  0  0
   -0.3217    3.0605   -2.5540 H   0  0  0  0  0  0  0  0  0  0  0  0
   -2.1143    2.1384   -1.1579 H   0  0  0  0  0  0  0  0  0  0  0  0
   -2.0918    1.3074   -2.7168 H   0  0  0  0  0  0  0  0  0  0  0  0
   -2.4301    0.6379    1.6033 H   0  0  0  0  0  0  0  0  0  0  0  0
   -3.4131    1.5685    0.4326 H   0  0  0  0  0  0  0  0  0  0  0  0
   -3.5447   -1.2971    2.8569 H   0  0  0  0  0  0  0  0  0  0  0  0
   -5.6459   -2.1478    3.8306 H   0  0  0  0  0  0  0  0  0  0  0  0
   -7.9129    0.4420    1.2544 H   0  0  0  0  0  0  0  0  0  0  0  0
   -5.8232    1.3032    0.2654 H   0  0  0  0  0  0  0  0  0  0  0  0
   -1.1839   -1.6471   -2.2691 H   0  0  0  0  0  0  0  0  0  0  0  0
    0.2169   -1.2848   -1.2638 H   0  0  0  0  0  0  0  0  0  0  0  0
   -0.6361   -0.1107   -3.9241 H   0  0  0  0  0  0  0  0  0  0  0  0
    0.8807   -0.8872   -3.5360 H   0  0  0  0  0  0  0  0  0  0  0  0
    4.8823    0.7833   -1.9212 H   0  0  0  0  0  0  0  0  0  0  0  0
    6.8396    0.2686   -0.5691 H   0  0  0  0  0  0  0  0  0  0  0  0
  1  2  1  0
  2  3  2  0
  2  4  1  0
  4  5  2  0
  5  6  1  0
  6  7  2  0
  7  8  1  0
  8  9  1  0
  9 10  2  0
  9 11  1  0
 11 12  1  0
 12 13  1  0
 13 14  1  0
 14 15  1  0
 15 16  2  0
 15 17  2  0
 15 18  1  0
 18 19  1  0
 19 20  2  0
 20 21  1  0
 21 22  2  0
 22 23  1  0
 22 24  1  0
 24 25  2  0
 14 26  1  0
 26 27  1  0
  7 28  1  0
 28 29  2  0
 29  4  1  0
 27 11  1  0
 25 19  1  0
  1 30  1  0
  1 31  1  0
  5 32  1  0
  6 33  1  0
  8 34  1  0
 11 35  1  0
 12 36  1  0
 12 37  1  0
 13 38  1  0
 13 39  1  0
 18 40  1  0
 18 41  1  0
 20 42  1  0
 21 43  1  0
 24 44  1  0
 25 45  1  0
 26 46  1  0
 26 47  1  0
 27 48  1  0
 27 49  1  0
 28 50  1  0
 29 51  1  0
M  END
$$$$
