
     RDKit          3D

 59 62  0  0  0  0  0  0  0  0999 V2000
   -8.1664    0.5058    3.6000 C   0  0  0  0  0  0  0  0  0  0  0  0
   -8.0677    0.1701    2.2132 O   0  0  0  0  0  0  0  0  0  0  0  0
   -6.8399    0.3476    1.6355 C   0  0  0  0  0  0  0  0  0  0  0  0
   -6.7224   -0.1546    0.3359 C   0  0  0  0  0  0  0  0  0  0  0  0
   -5.5158   -0.0488   -0.3647 C   0  0  0  0  0  0  0  0  0  0  0  0
   -4.3993    0.5479    0.2337 C   0  0  0  0  0  0  0  0  0  0  0  0
   -3.1020    0.6606   -0.4421 C   0  0  0  0  0  0  0  0  0  0  0  0
   -2.3829    1.7710   -0.4418 N   0  0  0  0  0  0  0  0  0  0  0  0
   -1.2759    1.5807   -1.2134 N   0  0  0  0  0  0  0  0  0  0  0  0
   -1.3040    0.3474   -1.6575 C   0  0  0  0  0  0  0  0  0  0  0  0
    0.0371   -0.3859   -2.4850 S   0  0  0  0  0  0  0  0  0  0  0  0
    1.4009    0.3837   -1.5610 C   0  0  0  0  0  0  0  0  0  0  0  0
    2.7706   -0.1525   -1.9656 C   0  0  0  0  0  0  0  0  0  0  0  0
    2.9263   -1.0273   -2.8199 O   0  0  0  0  0  0  0  0  0  0  0  0
    3.8644    0.4057   -1.3047 N   0  0  0  0  0  0  0  0  0  0  0  0
    5.2131   -0.0401   -1.6626 C   0  0  0  0  0  0  0  0  0  0  0  0
    6.2943    1.0017   -1.3076 C   0  0  0  0  0  0  0  0  0  0  0  0
    6.3003    1.4603    0.1031 N   0  0  0  0  0  0  0  0  0  0  0  0
    7.3389    0.7705    0.8904 C   0  0  0  0  0  0  0  0  0  0  0  0
    7.4801    1.2767    2.3321 C   0  0  0  0  0  0  0  0  0  0  0  0
    8.6016    0.6661    2.9633 O   0  0  0  0  0  0  0  0  0  0  0  0
    4.9638    1.3427    0.7237 C   0  0  0  0  0  0  0  0  0  0  0  0
    3.7950    1.4565   -0.2756 C   0  0  0  0  0  0  0  0  0  0  0  0
   -2.4355   -0.3111   -1.1967 N   0  0  0  0  0  0  0  0  0  0  0  0
   -2.7956   -1.6782   -1.3762 C   0  0  0  0  0  0  0  0  0  0  0  0
   -3.3051   -2.4212   -0.2985 C   0  0  0  0  0  0  0  0  0  0  0  0
   -3.6720   -3.7615   -0.4771 C   0  0  0  0  0  0  0  0  0  0  0  0
   -3.5352   -4.3655   -1.7261 C   0  0  0  0  0  0  0  0  0  0  0  0
   -3.0229   -3.6327   -2.7994 C   0  0  0  0  0  0  0  0  0  0  0  0
   -2.6517   -2.2914   -2.6296 C   0  0  0  0  0  0  0  0  0  0  0  0
   -4.5380    1.0867    1.5214 C   0  0  0  0  0  0  0  0  0  0  0  0
   -5.7474    0.9876    2.2180 C   0  0  0  0  0  0  0  0  0  0  0  0
   -7.4349   -0.0529    4.1996 H   0  0  0  0  0  0  0  0  0  0  0  0
   -9.1669    0.2191    3.9409 H   0  0  0  0  0  0  0  0  0  0  0  0
   -8.0617    1.5901    3.7464 H   0  0  0  0  0  0  0  0  0  0  0  0
   -7.5736   -0.6450   -0.1302 H   0  0  0  0  0  0  0  0  0  0  0  0
   -5.4635   -0.4466   -1.3778 H   0  0  0  0  0  0  0  0  0  0  0  0
    1.3852    1.4663   -1.7271 H   0  0  0  0  0  0  0  0  0  0  0  0
    1.2455    0.1616   -0.4987 H   0  0  0  0  0  0  0  0  0  0  0  0
    5.3991   -0.9769   -1.1235 H   0  0  0  0  0  0  0  0  0  0  0  0
    5.2508   -0.2602   -2.7341 H   0  0  0  0  0  0  0  0  0  0  0  0
    6.1157    1.8937   -1.9280 H   0  0  0  0  0  0  0  0  0  0  0  0
    7.2804    0.6277   -1.6107 H   0  0  0  0  0  0  0  0  0  0  0  0
    7.1685   -0.3124    0.9012 H   0  0  0  0  0  0  0  0  0  0  0  0
    8.3120    0.9107    0.4043 H   0  0  0  0  0  0  0  0  0  0  0  0
    7.6173    2.3590    2.3617 H   0  0  0  0  0  0  0  0  0  0  0  0
    6.5971    1.0280    2.9275 H   0  0  0  0  0  0  0  0  0  0  0  0
    9.4015    1.0488    2.5602 H   0  0  0  0  0  0  0  0  0  0  0  0
    4.8672    0.3732    1.2302 H   0  0  0  0  0  0  0  0  0  0  0  0
    4.8569    2.1244    1.4840 H   0  0  0  0  0  0  0  0  0  0  0  0
    2.8502    1.3981    0.2712 H   0  0  0  0  0  0  0  0  0  0  0  0
    3.8200    2.4257   -0.7956 H   0  0  0  0  0  0  0  0  0  0  0  0
   -3.3949   -1.9931    0.6990 H   0  0  0  0  0  0  0  0  0  0  0  0
   -4.0594   -4.3373    0.3634 H   0  0  0  0  0  0  0  0  0  0  0  0
   -3.8209   -5.4109   -1.8627 H   0  0  0  0  0  0  0  0  0  0  0  0
   -2.9156   -4.1054   -3.7737 H   0  0  0  0  0  0  0  0  0  0  0  0
   -2.2866   -1.7441   -3.4980 H   0  0  0  0  0  0  0  0  0  0  0  0
   -3.6989    1.5943    1.9938 H   0  0  0  0  0  0  0  0  0  0  0  0
   -5.7973    1.4221    3.2115 H   0  0  0  0  0  0  0  0  0  0  0  0
  1  2  1  0
  2  3  1  0
  3  4  2  0
  4  5  1  0
  5  6  2  0
  6  7  1  0
  7  8  2  0
  8  9  1  0
  9 10  2  0
 10 11  1  0
 11 12  1  0
 12 13  1  0
 13 14  2  0
 13 15  1  0
 15 16  1  0
 16 17  1  0
 17 18  1  0
 18 19  1  0
 19 20  1  0
 20 21  1  0
 18 22  1  0
 22 23  1  0
 10 24  1  0
 24 25  1  0
 25 26  2  0
 26 27  1  0
 27 28  2  0
 28 29  1  0
 29 30  2  0
  6 31  1  0
 31 32  2  0
 32  3  1  0
 24  7  1  0
 30 25  1  0
 23 15  1  0
  1 33  1  0
  1 34  1  0
  1 35  1  0
  4 36  1  0
  5 37  1  0
 12 38  1  0
 12 39  1  0
 16 40  1  0
 16 41  1  0
 17 42  1  0
 17 43  1  0
 19 44  1  0
 19 45  1  0
 20 46  1  0
 20 47  1  0
 21 48  1  0
 22 49  1  0
 22 50  1  0
 23 51  1  0
 23 52  1  0
 26 53  1  0
 27 54  1  0
 28 55  1  0
 29 56  1  0
 30 57  1  0
 31 58  1  0
 32 59  1  0
M  END
$$$$
