
     RDKit          3D

 56 59  0  0  0  0  0  0  0  0999 V2000
   -1.5428   -2.7449   -2.7886 C   0  0  0  0  0  0  0  0  0  0  0  0
   -1.6253   -2.5400   -1.2722 C   0  0  0  0  0  0  0  0  0  0  0  0
   -2.6241   -1.4348   -0.9006 C   0  0  0  0  0  0  0  0  0  0  0  0
   -2.1215   -0.1221   -1.3013 N   0  0  0  0  0  0  0  0  0  0  0  0
   -3.0822    0.9725   -1.4733 C   0  0  0  0  0  0  0  0  0  0  0  0
   -3.3315    1.7915   -0.1962 C   0  0  0  0  0  0  0  0  0  0  0  0
   -4.0561    1.0451    0.9005 C   0  0  0  0  0  0  0  0  0  0  0  0
   -5.4052    0.6925    0.7581 C   0  0  0  0  0  0  0  0  0  0  0  0
   -6.0648   -0.0032    1.7726 C   0  0  0  0  0  0  0  0  0  0  0  0
   -5.3847   -0.3497    2.9387 C   0  0  0  0  0  0  0  0  0  0  0  0
   -4.0448    0.0002    3.0928 C   0  0  0  0  0  0  0  0  0  0  0  0
   -3.3834    0.6955    2.0797 C   0  0  0  0  0  0  0  0  0  0  0  0
   -0.8122    0.1812   -1.1267 C   0  0  0  0  0  0  0  0  0  0  0  0
   -0.2112    1.3497   -1.2166 N   0  0  0  0  0  0  0  0  0  0  0  0
    1.0998    1.0871   -0.9578 C   0  0  0  0  0  0  0  0  0  0  0  0
    1.3198   -0.2330   -0.7096 C   0  0  0  0  0  0  0  0  0  0  0  0
    2.5956   -0.7631   -0.3884 C   0  0  0  0  0  0  0  0  0  0  0  0
    2.7776   -1.9430   -0.1010 O   0  0  0  0  0  0  0  0  0  0  0  0
    3.6079    0.2038   -0.4119 N   0  0  0  0  0  0  0  0  0  0  0  0
    4.9625   -0.2421   -0.0969 C   0  0  0  0  0  0  0  0  0  0  0  0
    5.2483   -0.1506    1.4050 C   0  0  0  0  0  0  0  0  0  0  0  0
    6.6406   -0.6599    1.7480 C   0  0  0  0  0  0  0  0  0  0  0  0
    7.6368    0.0979    1.0779 O   0  0  0  0  0  0  0  0  0  0  0  0
    3.4107    1.5880   -0.6048 C   0  0  0  0  0  0  0  0  0  0  0  0
    4.3433    2.3888   -0.4870 O   0  0  0  0  0  0  0  0  0  0  0  0
    2.1175    2.0098   -0.9167 N   0  0  0  0  0  0  0  0  0  0  0  0
    1.8341    3.4151   -1.1433 C   0  0  0  0  0  0  0  0  0  0  0  0
    0.0946   -0.8139   -0.8354 N   0  0  0  0  0  0  0  0  0  0  0  0
   -0.2560   -2.2081   -0.6689 C   0  0  0  0  0  0  0  0  0  0  0  0
   -0.8676   -3.5735   -3.0270 H   0  0  0  0  0  0  0  0  0  0  0  0
   -2.5285   -2.9912   -3.1975 H   0  0  0  0  0  0  0  0  0  0  0  0
   -1.1751   -1.8550   -3.3091 H   0  0  0  0  0  0  0  0  0  0  0  0
   -1.9733   -3.4867   -0.8393 H   0  0  0  0  0  0  0  0  0  0  0  0
   -2.7890   -1.4539    0.1824 H   0  0  0  0  0  0  0  0  0  0  0  0
   -3.5903   -1.6375   -1.3778 H   0  0  0  0  0  0  0  0  0  0  0  0
   -2.7134    1.6496   -2.2554 H   0  0  0  0  0  0  0  0  0  0  0  0
   -4.0292    0.5735   -1.8576 H   0  0  0  0  0  0  0  0  0  0  0  0
   -2.3876    2.1940    0.1910 H   0  0  0  0  0  0  0  0  0  0  0  0
   -3.9379    2.6692   -0.4562 H   0  0  0  0  0  0  0  0  0  0  0  0
   -5.9524    0.9619   -0.1423 H   0  0  0  0  0  0  0  0  0  0  0  0
   -7.1117   -0.2705    1.6554 H   0  0  0  0  0  0  0  0  0  0  0  0
   -5.9004   -0.8879    3.7295 H   0  0  0  0  0  0  0  0  0  0  0  0
   -3.5144   -0.2655    4.0033 H   0  0  0  0  0  0  0  0  0  0  0  0
   -2.3359    0.9595    2.2100 H   0  0  0  0  0  0  0  0  0  0  0  0
    5.6783    0.3687   -0.6593 H   0  0  0  0  0  0  0  0  0  0  0  0
    5.0929   -1.2761   -0.4375 H   0  0  0  0  0  0  0  0  0  0  0  0
    5.1538    0.8936    1.7265 H   0  0  0  0  0  0  0  0  0  0  0  0
    4.5038   -0.7276    1.9659 H   0  0  0  0  0  0  0  0  0  0  0  0
    6.7550   -1.7079    1.4545 H   0  0  0  0  0  0  0  0  0  0  0  0
    6.8202   -0.5897    2.8254 H   0  0  0  0  0  0  0  0  0  0  0  0
    7.5332    1.0290    1.3446 H   0  0  0  0  0  0  0  0  0  0  0  0
    1.2253    3.7903   -0.3148 H   0  0  0  0  0  0  0  0  0  0  0  0
    1.2852    3.5281   -2.0835 H   0  0  0  0  0  0  0  0  0  0  0  0
    2.7498    4.0092   -1.2029 H   0  0  0  0  0  0  0  0  0  0  0  0
    0.5301   -2.8213   -1.1206 H   0  0  0  0  0  0  0  0  0  0  0  0
   -0.2642   -2.3924    0.4120 H   0  0  0  0  0  0  0  0  0  0  0  0
  1  2  1  0
  2  3  1  0
  3  4  1  0
  4  5  1  0
  5  6  1  0
  6  7  1  0
  7  8  2  0
  8  9  1  0
  9 10  2  0
 10 11  1  0
 11 12  2  0
  4 13  1  0
 13 14  2  0
 14 15  1  0
 15 16  2  0
 16 17  1  0
 17 18  2  0
 17 19  1  0
 19 20  1  0
 20 21  1  0
 21 22  1  0
 22 23  1  0
 19 24  1  0
 24 25  2  0
 24 26  1  0
 26 27  1  0
 16 28  1  0
 28 29  1  0
 29  2  1  0
 12  7  1  0
 28 13  1  0
 26 15  1  0
  1 30  1  0
  1 31  1  0
  1 32  1  0
  2 33  1  0
  3 34  1  0
  3 35  1  0
  5 36  1  0
  5 37  1  0
  6 38  1  0
  6 39  1  0
  8 40  1  0
  9 41  1  0
 10 42  1  0
 11 43  1  0
 12 44  1  0
 20 45  1  0
 20 46  1  0
 21 47  1  0
 21 48  1  0
 22 49  1  0
 22 50  1  0
 23 51  1  0
 27 52  1  0
 27 53  1  0
 27 54  1  0
 29 55  1  0
 29 56  1  0
M  END
$$$$
