
     RDKit          3D

 44 47  0  0  0  0  0  0  0  0999 V2000
    6.2471    1.4173    1.0989 C   0  0  0  0  0  0  0  0  0  0  0  0
    5.9581   -0.0677    1.2330 C   0  0  0  0  0  0  0  0  0  0  0  0
    4.6841   -0.2843    1.8361 O   0  0  0  0  0  0  0  0  0  0  0  0
    3.5792   -0.3616    1.0381 C   0  0  0  0  0  0  0  0  0  0  0  0
    3.5283   -0.1436   -0.3340 C   0  0  0  0  0  0  0  0  0  0  0  0
    2.3110   -0.2560   -1.0263 C   0  0  0  0  0  0  0  0  0  0  0  0
    1.1097   -0.5848   -0.3739 C   0  0  0  0  0  0  0  0  0  0  0  0
   -0.1197   -0.7112   -1.0656 N   0  0  0  0  0  0  0  0  0  0  0  0
   -0.0540   -1.0487   -2.4953 C   0  0  0  0  0  0  0  0  0  0  0  0
   -1.3174   -1.7834   -2.9362 C   0  0  0  0  0  0  0  0  0  0  0  0
   -2.5376   -0.9322   -2.6340 C   0  0  0  0  0  0  0  0  0  0  0  0
   -2.4761   -0.4021   -1.2906 N   0  0  0  0  0  0  0  0  0  0  0  0
   -1.3161   -0.2978   -0.5430 C   0  0  0  0  0  0  0  0  0  0  0  0
   -1.5916    0.2345    0.6362 N   0  0  0  0  0  0  0  0  0  0  0  0
   -2.9284    0.4783    0.6244 C   0  0  0  0  0  0  0  0  0  0  0  0
   -3.5027    0.1030   -0.5532 C   0  0  0  0  0  0  0  0  0  0  0  0
   -4.8855    0.2700   -0.8212 C   0  0  0  0  0  0  0  0  0  0  0  0
   -5.4422   -0.0326   -1.8700 O   0  0  0  0  0  0  0  0  0  0  0  0
   -5.5604    0.8280    0.2416 N   0  0  0  0  0  0  0  0  0  0  0  0
   -5.0304    1.2302    1.4556 C   0  0  0  0  0  0  0  0  0  0  0  0
   -5.7813    1.7288    2.2941 O   0  0  0  0  0  0  0  0  0  0  0  0
   -3.6652    1.0418    1.6442 N   0  0  0  0  0  0  0  0  0  0  0  0
   -3.0230    1.4397    2.8818 C   0  0  0  0  0  0  0  0  0  0  0  0
    1.1885   -0.7900    1.0123 C   0  0  0  0  0  0  0  0  0  0  0  0
    2.4000   -0.6807    1.7065 C   0  0  0  0  0  0  0  0  0  0  0  0
    7.2540    1.5807    0.7043 H   0  0  0  0  0  0  0  0  0  0  0  0
    5.5293    1.9070    0.4343 H   0  0  0  0  0  0  0  0  0  0  0  0
    6.1662    1.9125    2.0723 H   0  0  0  0  0  0  0  0  0  0  0  0
    6.6995   -0.5029    1.9129 H   0  0  0  0  0  0  0  0  0  0  0  0
    6.0716   -0.6039    0.2845 H   0  0  0  0  0  0  0  0  0  0  0  0
    4.4084    0.1313   -0.9041 H   0  0  0  0  0  0  0  0  0  0  0  0
    2.3251   -0.0466   -2.0920 H   0  0  0  0  0  0  0  0  0  0  0  0
    0.0767   -0.1345   -3.0888 H   0  0  0  0  0  0  0  0  0  0  0  0
    0.7936   -1.7130   -2.7069 H   0  0  0  0  0  0  0  0  0  0  0  0
   -1.3905   -2.7369   -2.3969 H   0  0  0  0  0  0  0  0  0  0  0  0
   -1.2734   -2.0163   -4.0055 H   0  0  0  0  0  0  0  0  0  0  0  0
   -2.5981   -0.0738   -3.3121 H   0  0  0  0  0  0  0  0  0  0  0  0
   -3.4478   -1.5313   -2.7330 H   0  0  0  0  0  0  0  0  0  0  0  0
   -6.5492    0.9802    0.1221 H   0  0  0  0  0  0  0  0  0  0  0  0
   -3.7422    1.8531    3.5939 H   0  0  0  0  0  0  0  0  0  0  0  0
   -2.5438    0.5657    3.3340 H   0  0  0  0  0  0  0  0  0  0  0  0
   -2.2675    2.2009    2.6634 H   0  0  0  0  0  0  0  0  0  0  0  0
    0.2987   -1.0564    1.5779 H   0  0  0  0  0  0  0  0  0  0  0  0
    2.4151   -0.8492    2.7803 H   0  0  0  0  0  0  0  0  0  0  0  0
  1  2  1  0
  2  3  1  0
  3  4  1  0
  4  5  2  0
  5  6  1  0
  6  7  2  0
  7  8  1  0
  8  9  1  0
  9 10  1  0
 10 11  1  0
 11 12  1  0
 12 13  1  0
 13 14  2  0
 14 15  1  0
 15 16  2  0
 16 17  1  0
 17 18  2  0
 17 19  1  0
 19 20  1  0
 20 21  2  0
 20 22  1  0
 22 23  1  0
  7 24  1  0
 24 25  2  0
 25  4  1  0
 13  8  1  0
 22 15  1  0
 16 12  1  0
  1 26  1  0
  1 27  1  0
  1 28  1  0
  2 29  1  0
  2 30  1  0
  5 31  1  0
  6 32  1  0
  9 33  1  0
  9 34  1  0
 10 35  1  0
 10 36  1  0
 11 37  1  0
 11 38  1  0
 19 39  1  0
 23 40  1  0
 23 41  1  0
 23 42  1  0
 24 43  1  0
 25 44  1  0
M  END
$$$$
