
     RDKit          3D

 45 46  0  0  0  0  0  0  0  0999 V2000
    6.7214    0.3028    1.8056 C   0  0  0  0  0  0  0  0  0  0  0  0
    5.3798   -0.1628    1.8690 O   0  0  0  0  0  0  0  0  0  0  0  0
    4.4211    0.8288    1.5001 C   0  0  0  0  0  0  0  0  0  0  0  0
    4.2966    0.9719   -0.0195 C   0  0  0  0  0  0  0  0  0  0  0  0
    3.2199    1.9132   -0.3521 N   0  0  0  0  0  0  0  0  0  0  0  0
    2.5475    1.8403   -1.8881 S   0  0  0  0  0  6  0  0  0  0  0  0
    1.8231    3.0771   -2.0731 O   0  0  0  0  0  0  0  0  0  0  0  0
    3.5742    1.4086   -2.8092 O   0  0  0  0  0  0  0  0  0  0  0  0
    1.3516    0.5449   -1.7011 C   0  0  0  0  0  0  0  0  0  0  0  0
    1.5533   -0.6874   -2.3162 C   0  0  0  0  0  0  0  0  0  0  0  0
    0.5976   -1.6941   -2.1652 C   0  0  0  0  0  0  0  0  0  0  0  0
   -0.5655   -1.4732   -1.4103 C   0  0  0  0  0  0  0  0  0  0  0  0
   -1.5187   -2.4360   -1.1981 O   0  0  0  0  0  0  0  0  0  0  0  0
   -1.4561   -3.6226   -1.9775 C   0  0  0  0  0  0  0  0  0  0  0  0
   -0.7756   -0.2195   -0.7920 C   0  0  0  0  0  0  0  0  0  0  0  0
   -1.9789    0.0620   -0.0082 C   0  0  0  0  0  0  0  0  0  0  0  0
   -3.1907   -0.4469   -0.0659 N   0  0  0  0  0  0  0  0  0  0  0  0
   -3.8494    0.2356    0.9230 C   0  0  0  0  0  0  0  0  0  0  0  0
   -5.2870   -0.0187    1.2340 C   0  0  0  0  0  0  0  0  0  0  0  0
   -6.1492    1.2196    0.9844 C   0  0  0  0  0  0  0  0  0  0  0  0
   -5.4772   -0.5292    2.6631 C   0  0  0  0  0  0  0  0  0  0  0  0
   -3.1058    1.1392    1.5751 N   0  0  0  0  0  0  0  0  0  0  0  0
   -1.8592    1.0268    0.9583 O   0  0  0  0  0  0  0  0  0  0  0  0
    0.1970    0.7862   -0.9513 C   0  0  0  0  0  0  0  0  0  0  0  0
    6.8585    1.1726    2.4551 H   0  0  0  0  0  0  0  0  0  0  0  0
    7.3776   -0.4984    2.1566 H   0  0  0  0  0  0  0  0  0  0  0  0
    7.0014    0.5502    0.7783 H   0  0  0  0  0  0  0  0  0  0  0  0
    4.6568    1.7885    1.9760 H   0  0  0  0  0  0  0  0  0  0  0  0
    3.4572    0.5035    1.9084 H   0  0  0  0  0  0  0  0  0  0  0  0
    5.2360    1.3417   -0.4422 H   0  0  0  0  0  0  0  0  0  0  0  0
    4.1056   -0.0155   -0.4533 H   0  0  0  0  0  0  0  0  0  0  0  0
    3.2783    2.8687   -0.0006 H   0  0  0  0  0  0  0  0  0  0  0  0
    2.4462   -0.8772   -2.9086 H   0  0  0  0  0  0  0  0  0  0  0  0
    0.7939   -2.6490   -2.6434 H   0  0  0  0  0  0  0  0  0  0  0  0
   -2.3533   -4.2110   -1.7626 H   0  0  0  0  0  0  0  0  0  0  0  0
   -0.5876   -4.2277   -1.6985 H   0  0  0  0  0  0  0  0  0  0  0  0
   -1.4549   -3.3968   -3.0491 H   0  0  0  0  0  0  0  0  0  0  0  0
   -5.6409   -0.8063    0.5555 H   0  0  0  0  0  0  0  0  0  0  0  0
   -5.8735    2.0441    1.6515 H   0  0  0  0  0  0  0  0  0  0  0  0
   -7.2085    0.9948    1.1475 H   0  0  0  0  0  0  0  0  0  0  0  0
   -6.0356    1.5743   -0.0460 H   0  0  0  0  0  0  0  0  0  0  0  0
   -6.5272   -0.7789    2.8494 H   0  0  0  0  0  0  0  0  0  0  0  0
   -4.8805   -1.4314    2.8391 H   0  0  0  0  0  0  0  0  0  0  0  0
   -5.1731    0.2199    3.4032 H   0  0  0  0  0  0  0  0  0  0  0  0
    0.0540    1.7674   -0.4996 H   0  0  0  0  0  0  0  0  0  0  0  0
  1  2  1  0
  2  3  1  0
  3  4  1  0
  4  5  1  0
  5  6  1  0
  6  7  2  0
  6  8  2  0
  6  9  1  0
  9 10  2  0
 10 11  1  0
 11 12  2  0
 12 13  1  0
 13 14  1  0
 12 15  1  0
 15 16  1  0
 16 17  2  0
 17 18  1  0
 18 19  1  0
 19 20  1  0
 19 21  1  0
 18 22  2  0
 22 23  1  0
 15 24  2  0
 24  9  1  0
 23 16  1  0
  1 25  1  0
  1 26  1  0
  1 27  1  0
  3 28  1  0
  3 29  1  0
  4 30  1  0
  4 31  1  0
  5 32  1  0
 10 33  1  0
 11 34  1  0
 14 35  1  0
 14 36  1  0
 14 37  1  0
 19 38  1  0
 20 39  1  0
 20 40  1  0
 20 41  1  0
 21 42  1  0
 21 43  1  0
 21 44  1  0
 24 45  1  0
M  END
$$$$
