
     RDKit          3D

 34 35  0  0  0  0  0  0  0  0999 V2000
   -2.2255   -2.1452    2.2907 C   0  0  0  0  0  0  0  0  0  0  0  0
   -3.3881   -0.8240    2.7095 S   0  0  0  0  0  0  0  0  0  0  0  0
   -2.9901    0.3565    1.4426 C   0  0  0  0  0  0  0  0  0  0  0  0
   -3.8759    1.3457    1.2535 N   0  0  0  0  0  0  0  0  0  0  0  0
   -3.5822    2.2511    0.3053 C   0  0  0  0  0  0  0  0  0  0  0  0
   -4.5574    3.3686    0.0919 C   0  0  0  0  0  0  0  0  0  0  0  0
   -2.4305    2.1736   -0.4502 C   0  0  0  0  0  0  0  0  0  0  0  0
   -1.5728    1.1186   -0.1928 C   0  0  0  0  0  0  0  0  0  0  0  0
   -0.3835    1.0384   -0.9607 N   0  0  0  0  0  0  0  0  0  0  0  0
    0.7371    0.2029   -0.7561 C   0  0  0  0  0  0  0  0  0  0  0  0
    1.1295   -0.2414    0.5145 C   0  0  0  0  0  0  0  0  0  0  0  0
    2.2764   -1.0227    0.6880 C   0  0  0  0  0  0  0  0  0  0  0  0
    3.0653   -1.3365   -0.4177 C   0  0  0  0  0  0  0  0  0  0  0  0
    4.5197   -2.3279   -0.2116 S   0  0  0  0  0  6  0  0  0  0  0  0
    5.6919   -1.1495    0.0618 N   0  0  0  0  0  0  0  0  0  0  0  0
    4.4049   -3.0604    1.0282 O   0  0  0  0  0  0  0  0  0  0  0  0
    4.8198   -2.9689   -1.4695 O   0  0  0  0  0  0  0  0  0  0  0  0
    2.7130   -0.8868   -1.6902 C   0  0  0  0  0  0  0  0  0  0  0  0
    1.5622   -0.1090   -1.8501 C   0  0  0  0  0  0  0  0  0  0  0  0
   -1.8456    0.2135    0.7590 N   0  0  0  0  0  0  0  0  0  0  0  0
   -2.3721   -2.4822    1.2607 H   0  0  0  0  0  0  0  0  0  0  0  0
   -1.1927   -1.8133    2.4274 H   0  0  0  0  0  0  0  0  0  0  0  0
   -2.4000   -2.9949    2.9566 H   0  0  0  0  0  0  0  0  0  0  0  0
   -4.9330    3.3521   -0.9359 H   0  0  0  0  0  0  0  0  0  0  0  0
   -5.4130    3.2746    0.7686 H   0  0  0  0  0  0  0  0  0  0  0  0
   -4.0759    4.3326    0.2836 H   0  0  0  0  0  0  0  0  0  0  0  0
   -2.2023    2.9176   -1.2028 H   0  0  0  0  0  0  0  0  0  0  0  0
   -0.6111    1.1302   -1.9453 H   0  0  0  0  0  0  0  0  0  0  0  0
    0.5448    0.0192    1.3935 H   0  0  0  0  0  0  0  0  0  0  0  0
    2.5400   -1.3726    1.6837 H   0  0  0  0  0  0  0  0  0  0  0  0
    6.0608   -1.2667    1.0072 H   0  0  0  0  0  0  0  0  0  0  0  0
    5.3541   -0.2014   -0.0994 H   0  0  0  0  0  0  0  0  0  0  0  0
    3.3227   -1.1346   -2.5571 H   0  0  0  0  0  0  0  0  0  0  0  0
    1.3095    0.2430   -2.8477 H   0  0  0  0  0  0  0  0  0  0  0  0
  1  2  1  0
  2  3  1  0
  3  4  2  0
  4  5  1  0
  5  6  1  0
  5  7  2  0
  7  8  1  0
  8  9  1  0
  9 10  1  0
 10 11  2  0
 11 12  1  0
 12 13  2  0
 13 14  1  0
 14 15  1  0
 14 16  2  0
 14 17  2  0
 13 18  1  0
 18 19  2  0
  8 20  2  0
 20  3  1  0
 19 10  1  0
  1 21  1  0
  1 22  1  0
  1 23  1  0
  6 24  1  0
  6 25  1  0
  6 26  1  0
  7 27  1  0
  9 28  1  0
 11 29  1  0
 12 30  1  0
 15 31  1  0
 15 32  1  0
 18 33  1  0
 19 34  1  0
M  END
$$$$
