
     RDKit          3D

 52 54  0  0  0  0  0  0  0  0999 V2000
    7.8642   -1.4374   -1.1848 C   0  0  0  0  0  0  0  0  0  0  0  0
    7.3596   -1.0884    0.2069 C   0  0  0  0  0  0  0  0  0  0  0  0
    6.1266   -0.2238    0.1549 C   0  0  0  0  0  0  0  0  0  0  0  0
    6.2355    1.1704    0.1346 C   0  0  0  0  0  0  0  0  0  0  0  0
    5.0889    1.9661    0.0758 C   0  0  0  0  0  0  0  0  0  0  0  0
    3.8194    1.3869    0.0223 C   0  0  0  0  0  0  0  0  0  0  0  0
    2.7860    2.2801   -0.0331 O   0  0  0  0  0  0  0  0  0  0  0  0
    1.5150    1.7919   -0.4253 C   0  0  0  0  0  0  0  0  0  0  0  0
    0.6424    1.1924    0.6861 C   0  0  0  0  0  0  0  0  0  0  0  0
    0.9513    1.1748    1.8729 O   0  0  0  0  0  0  0  0  0  0  0  0
   -0.5392    0.6509    0.2169 N   0  0  0  0  0  0  0  0  0  0  0  0
   -1.5618    0.1722    1.1402 C   0  0  0  0  0  0  0  0  0  0  0  0
   -2.7003   -0.5734    0.3903 C   0  0  0  0  0  0  0  0  0  0  0  0
   -3.7719   -1.1210    1.3194 C   0  0  0  0  0  0  0  0  0  0  0  0
   -4.2924   -2.4058    1.3184 C   0  0  0  0  0  0  0  0  0  0  0  0
   -5.2779   -2.6067    2.3262 C   0  0  0  0  0  0  0  0  0  0  0  0
   -5.4772   -1.4744    3.0804 C   0  0  0  0  0  0  0  0  0  0  0  0
   -4.4792   -0.1856    2.5754 S   0  0  0  0  0  0  0  0  0  0  0  0
   -3.1963    0.1977   -0.7787 N   0  0  0  0  0  0  0  0  0  0  0  0
   -3.8692    1.4772   -0.4913 C   0  0  0  0  0  0  0  0  0  0  0  0
   -5.3618    1.4818   -0.8623 C   0  0  0  0  0  0  0  0  0  0  0  0
   -5.5936    1.1852   -2.2459 O   0  0  0  0  0  0  0  0  0  0  0  0
   -4.6358    0.2728   -2.7987 C   0  0  0  0  0  0  0  0  0  0  0  0
   -3.9634   -0.6152   -1.7399 C   0  0  0  0  0  0  0  0  0  0  0  0
    3.7051   -0.0023    0.0484 C   0  0  0  0  0  0  0  0  0  0  0  0
    4.8523   -0.8022    0.1090 C   0  0  0  0  0  0  0  0  0  0  0  0
    7.1079   -1.9869   -1.7555 H   0  0  0  0  0  0  0  0  0  0  0  0
    8.1229   -0.5362   -1.7512 H   0  0  0  0  0  0  0  0  0  0  0  0
    8.7591   -2.0639   -1.1169 H   0  0  0  0  0  0  0  0  0  0  0  0
    7.1423   -2.0079    0.7640 H   0  0  0  0  0  0  0  0  0  0  0  0
    8.1485   -0.5734    0.7686 H   0  0  0  0  0  0  0  0  0  0  0  0
    7.2117    1.6482    0.1691 H   0  0  0  0  0  0  0  0  0  0  0  0
    5.1866    3.0489    0.0696 H   0  0  0  0  0  0  0  0  0  0  0  0
    1.5966    1.0866   -1.2623 H   0  0  0  0  0  0  0  0  0  0  0  0
    0.9625    2.6580   -0.8101 H   0  0  0  0  0  0  0  0  0  0  0  0
   -0.8787    0.9283   -0.6983 H   0  0  0  0  0  0  0  0  0  0  0  0
   -1.0841   -0.4924    1.8706 H   0  0  0  0  0  0  0  0  0  0  0  0
   -1.9265    1.0473    1.6892 H   0  0  0  0  0  0  0  0  0  0  0  0
   -2.1984   -1.4539   -0.0412 H   0  0  0  0  0  0  0  0  0  0  0  0
   -3.9802   -3.1711    0.6173 H   0  0  0  0  0  0  0  0  0  0  0  0
   -5.8105   -3.5352    2.4920 H   0  0  0  0  0  0  0  0  0  0  0  0
   -6.1587   -1.3428    3.9099 H   0  0  0  0  0  0  0  0  0  0  0  0
   -3.3685    2.2336   -1.1094 H   0  0  0  0  0  0  0  0  0  0  0  0
   -3.7411    1.8080    0.5426 H   0  0  0  0  0  0  0  0  0  0  0  0
   -5.9211    0.7578   -0.2593 H   0  0  0  0  0  0  0  0  0  0  0  0
   -5.7928    2.4686   -0.6647 H   0  0  0  0  0  0  0  0  0  0  0  0
   -3.8870    0.8584   -3.3452 H   0  0  0  0  0  0  0  0  0  0  0  0
   -5.1601   -0.3479   -3.5325 H   0  0  0  0  0  0  0  0  0  0  0  0
   -4.7484   -1.1890   -1.2349 H   0  0  0  0  0  0  0  0  0  0  0  0
   -3.2912   -1.3238   -2.2360 H   0  0  0  0  0  0  0  0  0  0  0  0
    2.7414   -0.4991    0.0455 H   0  0  0  0  0  0  0  0  0  0  0  0
    4.7418   -1.8841    0.1306 H   0  0  0  0  0  0  0  0  0  0  0  0
  1  2  1  0
  2  3  1  0
  3  4  2  0
  4  5  1  0
  5  6  2  0
  6  7  1  0
  7  8  1  0
  8  9  1  0
  9 10  2  0
  9 11  1  0
 11 12  1  0
 12 13  1  0
 13 14  1  0
 14 15  2  0
 15 16  1  0
 16 17  2  0
 17 18  1  0
 13 19  1  0
 19 20  1  0
 20 21  1  0
 21 22  1  0
 22 23  1  0
 23 24  1  0
  6 25  1  0
 25 26  2  0
 26  3  1  0
 18 14  1  0
 24 19  1  0
  1 27  1  0
  1 28  1  0
  1 29  1  0
  2 30  1  0
  2 31  1  0
  4 32  1  0
  5 33  1  0
  8 34  1  0
  8 35  1  0
 11 36  1  0
 12 37  1  0
 12 38  1  0
 13 39  1  0
 15 40  1  0
 16 41  1  0
 17 42  1  0
 20 43  1  0
 20 44  1  0
 21 45  1  0
 21 46  1  0
 23 47  1  0
 23 48  1  0
 24 49  1  0
 24 50  1  0
 25 51  1  0
 26 52  1  0
M  END
$$$$
