
     RDKit          3D

 44 47  0  0  0  0  0  0  0  0999 V2000
    5.8121   -1.6257   -3.4555 N   0  0  0  0  0  0  0  0  0  0  0  0
    4.9925   -1.3589   -2.6766 C   0  0  0  0  0  0  0  0  0  0  0  0
    4.0197   -1.0081   -1.6970 C   0  0  0  0  0  0  0  0  0  0  0  0
    2.7502   -1.5396   -1.7046 N   0  0  0  0  0  0  0  0  0  0  0  0
    2.1756   -0.9689   -0.6620 C   0  0  0  0  0  0  0  0  0  0  0  0
    0.8144   -1.1338   -0.1570 C   0  0  0  0  0  0  0  0  0  0  0  0
   -0.0572   -2.0319   -0.7953 C   0  0  0  0  0  0  0  0  0  0  0  0
   -1.3654   -2.2127   -0.3369 C   0  0  0  0  0  0  0  0  0  0  0  0
   -1.8198   -1.4755    0.7589 C   0  0  0  0  0  0  0  0  0  0  0  0
   -3.4770   -1.7247    1.3677 S   0  0  0  0  0  6  0  0  0  0  0  0
   -3.8999   -3.0417    0.9416 O   0  0  0  0  0  0  0  0  0  0  0  0
   -3.4818   -1.3497    2.7658 O   0  0  0  0  0  0  0  0  0  0  0  0
   -4.3851   -0.5828    0.5163 N   0  0  0  0  0  0  0  0  0  0  0  0
   -4.2000    0.8595    0.8347 C   0  0  0  0  0  0  0  0  0  0  0  0
   -3.7074    1.6275   -0.3963 C   0  0  0  0  0  0  0  0  0  0  0  0
   -4.5971    1.5474   -1.5186 O   0  0  0  0  0  0  0  0  0  0  0  0
   -5.3843    0.3476   -1.5433 C   0  0  0  0  0  0  0  0  0  0  0  0
   -4.6628   -0.8519   -0.9203 C   0  0  0  0  0  0  0  0  0  0  0  0
   -0.9609   -0.5977    1.4252 C   0  0  0  0  0  0  0  0  0  0  0  0
    0.3470   -0.4238    0.9613 C   0  0  0  0  0  0  0  0  0  0  0  0
    2.9858   -0.1048    0.0261 O   0  0  0  0  0  0  0  0  0  0  0  0
    4.1794   -0.1339   -0.6436 C   0  0  0  0  0  0  0  0  0  0  0  0
    5.1982    0.6373   -0.1995 N   0  0  0  0  0  0  0  0  0  0  0  0
    5.0879    1.2259    1.1337 C   0  0  0  0  0  0  0  0  0  0  0  0
    4.3264    2.5013    1.3625 C   0  0  0  0  0  0  0  0  0  0  0  0
    5.8236    2.4974    1.4548 C   0  0  0  0  0  0  0  0  0  0  0  0
    0.2868   -2.6069   -1.6550 H   0  0  0  0  0  0  0  0  0  0  0  0
   -2.0145   -2.9300   -0.8352 H   0  0  0  0  0  0  0  0  0  0  0  0
   -3.5032    1.0062    1.6642 H   0  0  0  0  0  0  0  0  0  0  0  0
   -5.1733    1.2489    1.1558 H   0  0  0  0  0  0  0  0  0  0  0  0
   -2.7312    1.2493   -0.7204 H   0  0  0  0  0  0  0  0  0  0  0  0
   -3.5812    2.6874   -0.1538 H   0  0  0  0  0  0  0  0  0  0  0  0
   -6.3246    0.5512   -1.0177 H   0  0  0  0  0  0  0  0  0  0  0  0
   -5.6313    0.1396   -2.5891 H   0  0  0  0  0  0  0  0  0  0  0  0
   -5.2954   -1.7407   -1.0069 H   0  0  0  0  0  0  0  0  0  0  0  0
   -3.7242   -1.0220   -1.4561 H   0  0  0  0  0  0  0  0  0  0  0  0
   -1.2931   -0.0550    2.3079 H   0  0  0  0  0  0  0  0  0  0  0  0
    1.0024    0.2672    1.4897 H   0  0  0  0  0  0  0  0  0  0  0  0
    6.1340    0.4941   -0.5754 H   0  0  0  0  0  0  0  0  0  0  0  0
    5.0582    0.4780    1.9238 H   0  0  0  0  0  0  0  0  0  0  0  0
    3.8702    2.9841    0.5063 H   0  0  0  0  0  0  0  0  0  0  0  0
    3.7576    2.5903    2.2801 H   0  0  0  0  0  0  0  0  0  0  0  0
    6.3768    2.9912    0.6648 H   0  0  0  0  0  0  0  0  0  0  0  0
    6.2717    2.5893    2.4372 H   0  0  0  0  0  0  0  0  0  0  0  0
  1  2  3  0
  2  3  1  0
  3  4  1  0
  4  5  2  0
  5  6  1  0
  6  7  2  0
  7  8  1  0
  8  9  2  0
  9 10  1  0
 10 11  2  0
 10 12  2  0
 10 13  1  0
 13 14  1  0
 14 15  1  0
 15 16  1  0
 16 17  1  0
 17 18  1  0
  9 19  1  0
 19 20  2  0
  5 21  1  0
 21 22  1  0
 22 23  1  0
 23 24  1  0
 24 25  1  0
 25 26  1  0
 22  3  2  0
 26 24  1  0
 20  6  1  0
 18 13  1  0
  7 27  1  0
  8 28  1  0
 14 29  1  0
 14 30  1  0
 15 31  1  0
 15 32  1  0
 17 33  1  0
 17 34  1  0
 18 35  1  0
 18 36  1  0
 19 37  1  0
 20 38  1  0
 23 39  1  0
 24 40  1  0
 25 41  1  0
 25 42  1  0
 26 43  1  0
 26 44  1  0
M  END
$$$$
