
     RDKit          3D

 44 47  0  0  0  0  0  0  0  0999 V2000
    1.3678   -0.9998   -2.9603 O   0  0  0  0  0  0  0  0  0  0  0  0
    1.2804   -1.2594   -1.7626 C   0  0  0  0  0  0  0  0  0  0  0  0
    0.0631   -1.9502   -1.1686 C   0  0  0  0  0  0  0  0  0  0  0  0
   -1.0018   -1.0199   -0.7377 N   0  0  0  0  0  0  0  0  0  0  0  0
   -2.0415   -0.5654   -1.6357 C   0  0  0  0  0  0  0  0  0  0  0  0
   -1.9912   -0.8383   -3.0121 C   0  0  0  0  0  0  0  0  0  0  0  0
   -3.0102   -0.4061   -3.8598 C   0  0  0  0  0  0  0  0  0  0  0  0
   -4.0796    0.2972   -3.3337 C   0  0  0  0  0  0  0  0  0  0  0  0
   -5.0542    0.7238   -4.1470 F   0  0  0  0  0  0  0  0  0  0  0  0
   -4.1568    0.5725   -1.9726 C   0  0  0  0  0  0  0  0  0  0  0  0
   -3.1517    0.1378   -1.0867 C   0  0  0  0  0  0  0  0  0  0  0  0
   -3.2337    0.4293    0.3704 C   0  0  0  0  0  0  0  0  0  0  0  0
   -4.4564    0.6382    1.0346 C   0  0  0  0  0  0  0  0  0  0  0  0
   -4.5071    0.9149    2.4076 C   0  0  0  0  0  0  0  0  0  0  0  0
   -3.3365    0.9806    3.1584 C   0  0  0  0  0  0  0  0  0  0  0  0
   -2.1111    0.7640    2.5394 C   0  0  0  0  0  0  0  0  0  0  0  0
   -2.0764    0.4996    1.1647 C   0  0  0  0  0  0  0  0  0  0  0  0
   -0.5309    0.1553    0.3963 S   0  0  0  0  0  6  0  0  0  0  0  0
   -0.0926    1.3499   -0.2906 O   0  0  0  0  0  0  0  0  0  0  0  0
    0.3331   -0.5016    1.3591 O   0  0  0  0  0  0  0  0  0  0  0  0
    2.2651   -0.9440   -0.8489 N   0  0  0  0  0  0  0  0  0  0  0  0
    3.3510   -0.0762   -1.2407 C   0  0  0  0  0  0  0  0  0  0  0  0
    4.3186    0.1178   -0.1146 C   0  0  0  0  0  0  0  0  0  0  0  0
    4.0455    1.0015    0.9343 C   0  0  0  0  0  0  0  0  0  0  0  0
    4.9586    1.1396    1.9751 C   0  0  0  0  0  0  0  0  0  0  0  0
    6.1175    0.3827    1.9350 C   0  0  0  0  0  0  0  0  0  0  0  0
    6.4129   -0.4863    0.9446 N   0  0  0  0  0  0  0  0  0  0  0  0
    5.5072   -0.6011   -0.0534 C   0  0  0  0  0  0  0  0  0  0  0  0
   -0.3121   -2.6864   -1.8877 H   0  0  0  0  0  0  0  0  0  0  0  0
    0.3752   -2.5521   -0.3057 H   0  0  0  0  0  0  0  0  0  0  0  0
   -1.1544   -1.3622   -3.4639 H   0  0  0  0  0  0  0  0  0  0  0  0
   -2.9649   -0.6034   -4.9266 H   0  0  0  0  0  0  0  0  0  0  0  0
   -5.0099    1.1503   -1.6297 H   0  0  0  0  0  0  0  0  0  0  0  0
   -5.4024    0.5717    0.5013 H   0  0  0  0  0  0  0  0  0  0  0  0
   -5.4691    1.0716    2.8912 H   0  0  0  0  0  0  0  0  0  0  0  0
   -3.3826    1.1897    4.2245 H   0  0  0  0  0  0  0  0  0  0  0  0
   -1.1942    0.7965    3.1236 H   0  0  0  0  0  0  0  0  0  0  0  0
    2.0196   -0.9597    0.1397 H   0  0  0  0  0  0  0  0  0  0  0  0
    2.9300    0.8890   -1.5480 H   0  0  0  0  0  0  0  0  0  0  0  0
    3.8448   -0.5018   -2.1225 H   0  0  0  0  0  0  0  0  0  0  0  0
    3.1244    1.5807    0.9428 H   0  0  0  0  0  0  0  0  0  0  0  0
    4.7698    1.8198    2.7978 H   0  0  0  0  0  0  0  0  0  0  0  0
    6.8613    0.4554    2.7231 H   0  0  0  0  0  0  0  0  0  0  0  0
    5.7755   -1.3156   -0.8274 H   0  0  0  0  0  0  0  0  0  0  0  0
  1  2  2  0
  2  3  1  0
  3  4  1  0
  4  5  1  0
  5  6  2  0
  6  7  1  0
  7  8  2  0
  8  9  1  0
  8 10  1  0
 10 11  2  0
 11 12  1  0
 12 13  2  0
 13 14  1  0
 14 15  2  0
 15 16  1  0
 16 17  2  0
 17 18  1  0
 18 19  2  0
 18 20  2  0
  2 21  1  0
 21 22  1  0
 22 23  1  0
 23 24  2  0
 24 25  1  0
 25 26  2  0
 26 27  1  0
 27 28  2  0
 18  4  1  0
 28 23  1  0
 11  5  1  0
 17 12  1  0
  3 29  1  0
  3 30  1  0
  6 31  1  0
  7 32  1  0
 10 33  1  0
 13 34  1  0
 14 35  1  0
 15 36  1  0
 16 37  1  0
 21 38  1  0
 22 39  1  0
 22 40  1  0
 24 41  1  0
 25 42  1  0
 26 43  1  0
 28 44  1  0
M  END
$$$$
