
     RDKit          3D

 39 39  0  0  0  0  0  0  0  0999 V2000
    6.1126   -0.1905    0.4497 C   0  0  0  0  0  0  0  0  0  0  0  0
    5.6277   -1.0556   -0.5067 O   0  0  0  0  0  0  0  0  0  0  0  0
    4.2748   -1.2569   -0.4432 C   0  0  0  0  0  0  0  0  0  0  0  0
    3.4632    0.0122   -0.6231 C   0  0  0  0  0  0  0  0  0  0  0  0
    2.0474   -0.3058   -0.5402 N   0  0  0  0  0  0  0  0  0  0  0  0
    1.3227    0.9418   -0.7187 C   0  0  0  0  0  0  0  0  0  0  0  0
   -0.1540    0.7149   -0.6488 C   0  0  0  0  0  0  0  0  0  0  0  0
   -0.8816    0.4247   -1.7833 C   0  0  0  0  0  0  0  0  0  0  0  0
   -2.2422    0.2084   -1.7657 C   0  0  0  0  0  0  0  0  0  0  0  0
   -2.9179    0.2843   -0.5555 C   0  0  0  0  0  0  0  0  0  0  0  0
   -2.1894    0.5771    0.5956 C   0  0  0  0  0  0  0  0  0  0  0  0
   -0.8278    0.7897    0.5523 C   0  0  0  0  0  0  0  0  0  0  0  0
   -3.0443    0.5995    1.6439 N   0  0  0  0  0  0  0  0  0  0  0  0
   -2.6772    0.8679    3.0157 C   0  0  0  0  0  0  0  0  0  0  0  0
   -4.2555    0.3259    1.1286 C   0  0  0  0  0  0  0  0  0  0  0  0
   -5.3003    0.2662    1.8392 O   0  0  0  0  0  0  0  0  0  0  0  0
   -4.1836    0.1373   -0.1835 N   0  0  0  0  0  0  0  0  0  0  0  0
   -5.2799   -0.1755   -1.0771 C   0  0  0  0  0  0  0  0  0  0  0  0
    0.6830    0.0000    0.0000 Cl  0  0  0  0  0  0  0  0  0  0  0  0
    5.6812    0.8296    0.4020 H   0  0  0  0  0  0  0  0  0  0  0  0
    5.8196   -0.5970    1.4391 H   0  0  0  0  0  0  0  0  0  0  0  0
    7.2086   -0.1004    0.4356 H   0  0  0  0  0  0  0  0  0  0  0  0
    3.9469   -1.9732   -1.2167 H   0  0  0  0  0  0  0  0  0  0  0  0
    4.0368   -1.6902    0.5477 H   0  0  0  0  0  0  0  0  0  0  0  0
    3.6570    0.7328    0.2099 H   0  0  0  0  0  0  0  0  0  0  0  0
    3.6976    0.4865   -1.5821 H   0  0  0  0  0  0  0  0  0  0  0  0
    1.7577   -0.9640   -1.2772 H   0  0  0  0  0  0  0  0  0  0  0  0
    1.6323    1.6777    0.0304 H   0  0  0  0  0  0  0  0  0  0  0  0
    1.5268    1.3588   -1.7279 H   0  0  0  0  0  0  0  0  0  0  0  0
   -0.3481    0.3657   -2.7326 H   0  0  0  0  0  0  0  0  0  0  0  0
   -2.8059   -0.0192   -2.6624 H   0  0  0  0  0  0  0  0  0  0  0  0
   -0.2811    1.0163    1.4607 H   0  0  0  0  0  0  0  0  0  0  0  0
   -1.9828    1.7280    3.1032 H   0  0  0  0  0  0  0  0  0  0  0  0
   -2.1687    0.0063    3.4943 H   0  0  0  0  0  0  0  0  0  0  0  0
   -3.5751    1.0831    3.6182 H   0  0  0  0  0  0  0  0  0  0  0  0
   -4.9075   -0.6327   -2.0237 H   0  0  0  0  0  0  0  0  0  0  0  0
   -5.8940   -0.9848   -0.5911 H   0  0  0  0  0  0  0  0  0  0  0  0
   -5.8960    0.7116   -1.3066 H   0  0  0  0  0  0  0  0  0  0  0  0
   -0.6830    0.0000    0.0000 H   0  0  0  0  0  0  0  0  0  0  0  0
  1  2  1  0
  2  3  1  0
  3  4  1  0
  4  5  1  0
  5  6  1  0
  6  7  1  0
  7  8  2  0
  8  9  1  0
  9 10  2  0
 10 11  1  0
 11 12  2  0
 11 13  1  0
 13 14  1  0
 13 15  1  0
 15 16  2  0
 15 17  1  0
 17 18  1  0
 12  7  1  0
 17 10  1  0
  1 20  1  0
  1 21  1  0
  1 22  1  0
  3 23  1  0
  3 24  1  0
  4 25  1  0
  4 26  1  0
  5 27  1  0
  6 28  1  0
  6 29  1  0
  8 30  1  0
  9 31  1  0
 12 32  1  0
 14 33  1  0
 14 34  1  0
 14 35  1  0
 18 36  1  0
 18 37  1  0
 18 38  1  0
 19 39  1  0
M  END
$$$$
