
     RDKit          3D

 41 43  0  0  0  0  0  0  0  0999 V2000
   -2.1571    1.9621    2.0662 C   0  0  0  0  0  0  0  0  0  0  0  0
   -1.8250    2.2183    0.6043 C   0  0  0  0  0  0  0  0  0  0  0  0
   -0.7016    1.3243    0.0633 C   0  0  0  0  0  0  0  0  0  0  0  0
   -1.0193   -0.0906    0.0073 N   0  0  0  0  0  0  0  0  0  0  0  0
   -0.4025   -1.1371    0.6749 C   0  0  0  0  0  0  0  0  0  0  0  0
    0.8472   -1.0839    1.5211 C   0  0  0  0  0  0  0  0  0  0  0  0
    0.5894   -0.4865    2.8981 C   0  0  0  0  0  0  0  0  0  0  0  0
    1.9188   -0.3896    0.8351 N   0  0  0  0  0  0  0  0  0  0  0  0
    2.7280   -0.9941   -0.1016 C   0  0  0  0  0  0  0  0  0  0  0  0
    2.6814   -2.1906   -0.3628 O   0  0  0  0  0  0  0  0  0  0  0  0
    3.6475   -0.0746   -0.7410 C   0  0  0  0  0  0  0  0  0  0  0  0
    4.6162   -0.2799   -1.7047 C   0  0  0  0  0  0  0  0  0  0  0  0
    5.2119    0.9780   -1.9602 C   0  0  0  0  0  0  0  0  0  0  0  0
    4.5730    1.8776   -1.1405 C   0  0  0  0  0  0  0  0  0  0  0  0
    3.6212    1.2554   -0.3974 O   0  0  0  0  0  0  0  0  0  0  0  0
   -1.0714   -2.2597    0.4685 N   0  0  0  0  0  0  0  0  0  0  0  0
   -2.0352   -1.9736   -0.4559 C   0  0  0  0  0  0  0  0  0  0  0  0
   -2.9674   -2.8282   -1.0625 C   0  0  0  0  0  0  0  0  0  0  0  0
   -3.8440   -2.3024   -2.0177 C   0  0  0  0  0  0  0  0  0  0  0  0
   -3.7901   -0.9522   -2.3632 C   0  0  0  0  0  0  0  0  0  0  0  0
   -2.8700   -0.0851   -1.7616 C   0  0  0  0  0  0  0  0  0  0  0  0
   -2.0083   -0.6278   -0.7973 C   0  0  0  0  0  0  0  0  0  0  0  0
   -2.9772    2.6141    2.3838 H   0  0  0  0  0  0  0  0  0  0  0  0
   -2.4680    0.9266    2.2338 H   0  0  0  0  0  0  0  0  0  0  0  0
   -1.2966    2.1779    2.7058 H   0  0  0  0  0  0  0  0  0  0  0  0
   -2.7383    2.1039    0.0126 H   0  0  0  0  0  0  0  0  0  0  0  0
   -1.5159    3.2650    0.4972 H   0  0  0  0  0  0  0  0  0  0  0  0
   -0.4454    1.6260   -0.9593 H   0  0  0  0  0  0  0  0  0  0  0  0
    0.1893    1.4753    0.6719 H   0  0  0  0  0  0  0  0  0  0  0  0
    1.1782   -2.1202    1.6706 H   0  0  0  0  0  0  0  0  0  0  0  0
   -0.2428   -0.9903    3.4013 H   0  0  0  0  0  0  0  0  0  0  0  0
    0.3573    0.5802    2.8447 H   0  0  0  0  0  0  0  0  0  0  0  0
    1.4792   -0.5867    3.5299 H   0  0  0  0  0  0  0  0  0  0  0  0
    2.0662    0.5998    0.9829 H   0  0  0  0  0  0  0  0  0  0  0  0
    4.8525   -1.2327   -2.1599 H   0  0  0  0  0  0  0  0  0  0  0  0
    6.0088    1.2008   -2.6561 H   0  0  0  0  0  0  0  0  0  0  0  0
    4.6746    2.9416   -0.9767 H   0  0  0  0  0  0  0  0  0  0  0  0
   -2.9895   -3.8791   -0.7969 H   0  0  0  0  0  0  0  0  0  0  0  0
   -4.5660   -2.9573   -2.4990 H   0  0  0  0  0  0  0  0  0  0  0  0
   -4.4749   -0.5656   -3.1152 H   0  0  0  0  0  0  0  0  0  0  0  0
   -2.8341    0.9611   -2.0436 H   0  0  0  0  0  0  0  0  0  0  0  0
  1  2  1  0
  2  3  1  0
  3  4  1  0
  4  5  1  0
  5  6  1  0
  6  7  1  0
  6  8  1  0
  8  9  1  0
  9 10  2  0
  9 11  1  0
 11 12  2  0
 12 13  1  0
 13 14  2  0
 14 15  1  0
  5 16  2  0
 16 17  1  0
 17 18  2  0
 18 19  1  0
 19 20  2  0
 20 21  1  0
 21 22  2  0
 22  4  1  0
 15 11  1  0
 22 17  1  0
  1 23  1  0
  1 24  1  0
  1 25  1  0
  2 26  1  0
  2 27  1  0
  3 28  1  0
  3 29  1  0
  6 30  1  0
  7 31  1  0
  7 32  1  0
  7 33  1  0
  8 34  1  0
 12 35  1  0
 13 36  1  0
 14 37  1  0
 18 38  1  0
 19 39  1  0
 20 40  1  0
 21 41  1  0
M  END
$$$$
