
     RDKit          3D

 43 45  0  0  0  0  0  0  0  0999 V2000
    7.1833   -0.1842    0.9526 C   0  0  0  0  0  0  0  0  0  0  0  0
    6.6371    0.9584    0.3069 O   0  0  0  0  0  0  0  0  0  0  0  0
    5.3013    0.9251    0.0168 C   0  0  0  0  0  0  0  0  0  0  0  0
    4.4251   -0.1241    0.2951 C   0  0  0  0  0  0  0  0  0  0  0  0
    3.0709   -0.0302   -0.0572 C   0  0  0  0  0  0  0  0  0  0  0  0
    2.5843    1.1137   -0.6900 C   0  0  0  0  0  0  0  0  0  0  0  0
    1.2932    1.3304   -1.0831 O   0  0  0  0  0  0  0  0  0  0  0  0
    0.3535    0.2856   -0.8222 C   0  0  0  0  0  0  0  0  0  0  0  0
   -1.0449    0.6773   -1.3218 C   0  0  0  0  0  0  0  0  0  0  0  0
   -1.1776    1.6602   -2.0642 O   0  0  0  0  0  0  0  0  0  0  0  0
   -2.1639   -0.0608   -0.9014 N   0  0  0  0  0  0  0  0  0  0  0  0
   -3.4686    0.5180   -1.2344 C   0  0  0  0  0  0  0  0  0  0  0  0
   -4.1227    1.1953   -0.0532 C   0  0  0  0  0  0  0  0  0  0  0  0
   -5.4390    1.0814    0.3595 C   0  0  0  0  0  0  0  0  0  0  0  0
   -5.7251    1.8759    1.5069 C   0  0  0  0  0  0  0  0  0  0  0  0
   -4.6248    2.5873    1.9260 C   0  0  0  0  0  0  0  0  0  0  0  0
   -3.2621    2.3033    0.9365 S   0  0  0  0  0  0  0  0  0  0  0  0
   -2.0973   -1.3356   -0.2507 C   0  0  0  0  0  0  0  0  0  0  0  0
   -3.2377   -1.9696    0.2493 C   0  0  0  0  0  0  0  0  0  0  0  0
   -3.1407   -3.2254    0.8552 C   0  0  0  0  0  0  0  0  0  0  0  0
   -1.9065   -3.8422    0.9500 C   0  0  0  0  0  0  0  0  0  0  0  0
   -0.8214   -3.1697    0.4321 C   0  0  0  0  0  0  0  0  0  0  0  0
   -0.8993   -1.9523   -0.1550 N   0  0  0  0  0  0  0  0  0  0  0  0
    3.4626    2.1613   -0.9673 C   0  0  0  0  0  0  0  0  0  0  0  0
    4.8114    2.0678   -0.6165 C   0  0  0  0  0  0  0  0  0  0  0  0
    7.0902   -1.0757    0.3236 H   0  0  0  0  0  0  0  0  0  0  0  0
    6.7224   -0.3417    1.9334 H   0  0  0  0  0  0  0  0  0  0  0  0
    8.2501    0.0000    1.1123 H   0  0  0  0  0  0  0  0  0  0  0  0
    4.7597   -1.0317    0.7857 H   0  0  0  0  0  0  0  0  0  0  0  0
    2.4246   -0.8697    0.1780 H   0  0  0  0  0  0  0  0  0  0  0  0
    0.6673   -0.6063   -1.3744 H   0  0  0  0  0  0  0  0  0  0  0  0
    0.3026    0.1323    0.2609 H   0  0  0  0  0  0  0  0  0  0  0  0
   -3.3858    1.2572   -2.0400 H   0  0  0  0  0  0  0  0  0  0  0  0
   -4.1143   -0.2682   -1.6451 H   0  0  0  0  0  0  0  0  0  0  0  0
   -6.1693    0.4557   -0.1399 H   0  0  0  0  0  0  0  0  0  0  0  0
   -6.6904    1.9305    1.9952 H   0  0  0  0  0  0  0  0  0  0  0  0
   -4.5549    3.2709    2.7612 H   0  0  0  0  0  0  0  0  0  0  0  0
   -4.2219   -1.5230    0.2019 H   0  0  0  0  0  0  0  0  0  0  0  0
   -4.0293   -3.7111    1.2494 H   0  0  0  0  0  0  0  0  0  0  0  0
   -1.7939   -4.8158    1.4127 H   0  0  0  0  0  0  0  0  0  0  0  0
    0.1751   -3.6006    0.4723 H   0  0  0  0  0  0  0  0  0  0  0  0
    3.0940    3.0573   -1.4607 H   0  0  0  0  0  0  0  0  0  0  0  0
    5.4826    2.8930   -0.8398 H   0  0  0  0  0  0  0  0  0  0  0  0
  1  2  1  0
  2  3  1  0
  3  4  2  0
  4  5  1  0
  5  6  2  0
  6  7  1  0
  7  8  1  0
  8  9  1  0
  9 10  2  0
  9 11  1  0
 11 12  1  0
 12 13  1  0
 13 14  2  0
 14 15  1  0
 15 16  2  0
 16 17  1  0
 11 18  1  0
 18 19  2  0
 19 20  1  0
 20 21  2  0
 21 22  1  0
 22 23  2  0
  6 24  1  0
 24 25  2  0
 25  3  1  0
 17 13  1  0
 23 18  1  0
  1 26  1  0
  1 27  1  0
  1 28  1  0
  4 29  1  0
  5 30  1  0
  8 31  1  0
  8 32  1  0
 12 33  1  0
 12 34  1  0
 14 35  1  0
 15 36  1  0
 16 37  1  0
 19 38  1  0
 20 39  1  0
 21 40  1  0
 22 41  1  0
 24 42  1  0
 25 43  1  0
M  END
$$$$
