
     RDKit          3D

 53 55  0  0  0  0  0  0  0  0999 V2000
   -2.5528   -1.8020    3.3012 C   0  0  0  0  0  0  0  0  0  0  0  0
   -3.5581   -1.4007    2.3809 O   0  0  0  0  0  0  0  0  0  0  0  0
   -3.1419   -0.8807    1.1822 C   0  0  0  0  0  0  0  0  0  0  0  0
   -1.8350   -0.4749    0.9006 C   0  0  0  0  0  0  0  0  0  0  0  0
   -1.5008    0.0492   -0.3575 C   0  0  0  0  0  0  0  0  0  0  0  0
   -0.1602    0.4480   -0.5467 N   0  0  0  0  0  0  0  0  0  0  0  0
    0.4631    0.7834   -1.7270 C   0  0  0  0  0  0  0  0  0  0  0  0
   -0.0393    0.6828   -2.8436 O   0  0  0  0  0  0  0  0  0  0  0  0
    1.7557    1.2544   -1.5724 N   0  0  0  0  0  0  0  0  0  0  0  0
    2.5180    1.6520   -2.7438 C   0  0  0  0  0  0  0  0  0  0  0  0
    3.8850    2.0342   -2.2032 C   0  0  0  0  0  0  0  0  0  0  0  0
    3.5503    2.6173   -0.8354 C   0  0  0  0  0  0  0  0  0  0  0  0
    2.3851    1.7457   -0.3431 C   0  0  0  0  0  0  0  0  0  0  0  0
    2.8536    0.6447    0.5932 C   0  0  0  0  0  0  0  0  0  0  0  0
    2.9276    0.9073    1.9701 C   0  0  0  0  0  0  0  0  0  0  0  0
    3.3366   -0.0832    2.8628 C   0  0  0  0  0  0  0  0  0  0  0  0
    3.6850   -1.3478    2.3922 C   0  0  0  0  0  0  0  0  0  0  0  0
    3.6422   -1.6285    1.0231 C   0  0  0  0  0  0  0  0  0  0  0  0
    3.9868   -2.9982    0.5159 C   0  0  0  0  0  0  0  0  0  0  0  0
    3.2184   -0.6315    0.1334 C   0  0  0  0  0  0  0  0  0  0  0  0
   -2.4907    0.1767   -1.3369 C   0  0  0  0  0  0  0  0  0  0  0  0
   -3.8046   -0.2268   -1.0790 C   0  0  0  0  0  0  0  0  0  0  0  0
   -4.8368   -0.1431   -1.9795 O   0  0  0  0  0  0  0  0  0  0  0  0
   -4.4897    0.0998   -3.3372 C   0  0  0  0  0  0  0  0  0  0  0  0
   -4.1247   -0.7321    0.1914 C   0  0  0  0  0  0  0  0  0  0  0  0
   -5.4080   -1.1643    0.4462 O   0  0  0  0  0  0  0  0  0  0  0  0
   -6.1878   -0.0840    0.9555 C   0  0  0  0  0  0  0  0  0  0  0  0
   -3.0466   -2.3081    4.1364 H   0  0  0  0  0  0  0  0  0  0  0  0
   -2.0245   -0.9328    3.7059 H   0  0  0  0  0  0  0  0  0  0  0  0
   -1.8546   -2.5132    2.8467 H   0  0  0  0  0  0  0  0  0  0  0  0
   -1.0594   -0.5586    1.6541 H   0  0  0  0  0  0  0  0  0  0  0  0
    0.4613    0.2748    0.2284 H   0  0  0  0  0  0  0  0  0  0  0  0
    2.0175    2.5133   -3.2013 H   0  0  0  0  0  0  0  0  0  0  0  0
    2.5602    0.8378   -3.4736 H   0  0  0  0  0  0  0  0  0  0  0  0
    4.5134    1.1432   -2.0889 H   0  0  0  0  0  0  0  0  0  0  0  0
    4.4100    2.7417   -2.8509 H   0  0  0  0  0  0  0  0  0  0  0  0
    4.4142    2.6385   -0.1639 H   0  0  0  0  0  0  0  0  0  0  0  0
    3.2019    3.6498   -0.9671 H   0  0  0  0  0  0  0  0  0  0  0  0
    1.6483    2.3656    0.1839 H   0  0  0  0  0  0  0  0  0  0  0  0
    2.6637    1.8889    2.3594 H   0  0  0  0  0  0  0  0  0  0  0  0
    3.3854    0.1303    3.9277 H   0  0  0  0  0  0  0  0  0  0  0  0
    3.9966   -2.1128    3.1001 H   0  0  0  0  0  0  0  0  0  0  0  0
    4.4246   -2.9443   -0.4865 H   0  0  0  0  0  0  0  0  0  0  0  0
    3.0869   -3.6196    0.4772 H   0  0  0  0  0  0  0  0  0  0  0  0
    4.7234   -3.4822    1.1658 H   0  0  0  0  0  0  0  0  0  0  0  0
    3.1688   -0.8604   -0.9304 H   0  0  0  0  0  0  0  0  0  0  0  0
   -2.2385    0.6066   -2.2981 H   0  0  0  0  0  0  0  0  0  0  0  0
   -5.3985   -0.0064   -3.9375 H   0  0  0  0  0  0  0  0  0  0  0  0
   -3.7625   -0.6331   -3.7029 H   0  0  0  0  0  0  0  0  0  0  0  0
   -4.1237    1.1231   -3.4693 H   0  0  0  0  0  0  0  0  0  0  0  0
   -7.1988   -0.4594    1.1400 H   0  0  0  0  0  0  0  0  0  0  0  0
   -6.2597    0.7361    0.2331 H   0  0  0  0  0  0  0  0  0  0  0  0
   -5.7862    0.2833    1.9061 H   0  0  0  0  0  0  0  0  0  0  0  0
  1  2  1  0
  2  3  1  0
  3  4  2  0
  4  5  1  0
  5  6  1  0
  6  7  1  0
  7  8  2  0
  7  9  1  0
  9 10  1  0
 10 11  1  0
 11 12  1  0
 12 13  1  0
 13 14  1  0
 14 15  2  0
 15 16  1  0
 16 17  2  0
 17 18  1  0
 18 19  1  0
 18 20  2  0
  5 21  2  0
 21 22  1  0
 22 23  1  0
 23 24  1  0
 22 25  2  0
 25 26  1  0
 26 27  1  0
 25  3  1  0
 13  9  1  0
 20 14  1  0
  1 28  1  0
  1 29  1  0
  1 30  1  0
  4 31  1  0
  6 32  1  0
 10 33  1  0
 10 34  1  0
 11 35  1  0
 11 36  1  0
 12 37  1  0
 12 38  1  0
 13 39  1  0
 15 40  1  0
 16 41  1  0
 17 42  1  0
 19 43  1  0
 19 44  1  0
 19 45  1  0
 20 46  1  0
 21 47  1  0
 24 48  1  0
 24 49  1  0
 24 50  1  0
 27 51  1  0
 27 52  1  0
 27 53  1  0
M  END
$$$$
