
     RDKit          3D

 35 37  0  0  0  0  0  0  0  0999 V2000
   -1.6951    2.8645    0.5697 C   0  0  0  0  0  0  0  0  0  0  0  0
   -1.8835    1.7815   -0.4223 C   0  0  0  0  0  0  0  0  0  0  0  0
   -2.2637    2.0690   -1.6743 N   0  0  0  0  0  0  0  0  0  0  0  0
   -2.3755    0.8524   -2.3206 O   0  0  0  0  0  0  0  0  0  0  0  0
   -2.0589   -0.1518   -1.4603 C   0  0  0  0  0  0  0  0  0  0  0  0
   -2.1902   -1.5204   -1.9918 C   0  0  0  0  0  0  0  0  0  0  0  0
   -1.6995    0.3873   -0.2447 C   0  0  0  0  0  0  0  0  0  0  0  0
   -1.3107   -0.3212    0.9513 C   0  0  0  0  0  0  0  0  0  0  0  0
   -2.0350   -0.3089    1.9434 O   0  0  0  0  0  0  0  0  0  0  0  0
   -0.1110   -1.0069    0.9248 N   0  0  0  0  0  0  0  0  0  0  0  0
    0.2768   -1.8538    2.0337 C   0  0  0  0  0  0  0  0  0  0  0  0
    1.2940   -2.8016    1.4240 C   0  0  0  0  0  0  0  0  0  0  0  0
    2.0302   -1.9129    0.4294 C   0  0  0  0  0  0  0  0  0  0  0  0
    0.9408   -0.9621   -0.0958 C   0  0  0  0  0  0  0  0  0  0  0  0
    1.4706    0.4201   -0.2801 C   0  0  0  0  0  0  0  0  0  0  0  0
    1.6380    1.2225   -1.3911 C   0  0  0  0  0  0  0  0  0  0  0  0
    2.1768    2.4459   -0.9254 C   0  0  0  0  0  0  0  0  0  0  0  0
    2.3088    2.3135    0.4361 C   0  0  0  0  0  0  0  0  0  0  0  0
    1.8822    1.0896    0.8383 O   0  0  0  0  0  0  0  0  0  0  0  0
   -2.6378    3.0727    1.0854 H   0  0  0  0  0  0  0  0  0  0  0  0
   -1.3554    3.7871    0.0875 H   0  0  0  0  0  0  0  0  0  0  0  0
   -0.9480    2.5884    1.3203 H   0  0  0  0  0  0  0  0  0  0  0  0
   -2.0614   -2.2685   -1.2039 H   0  0  0  0  0  0  0  0  0  0  0  0
   -1.4362   -1.7036   -2.7633 H   0  0  0  0  0  0  0  0  0  0  0  0
   -3.1797   -1.6667   -2.4360 H   0  0  0  0  0  0  0  0  0  0  0  0
    0.7305   -1.2179    2.8022 H   0  0  0  0  0  0  0  0  0  0  0  0
   -0.5835   -2.3756    2.4631 H   0  0  0  0  0  0  0  0  0  0  0  0
    0.7827   -3.6101    0.8876 H   0  0  0  0  0  0  0  0  0  0  0  0
    1.9570   -3.2482    2.1698 H   0  0  0  0  0  0  0  0  0  0  0  0
    2.8321   -1.3746    0.9502 H   0  0  0  0  0  0  0  0  0  0  0  0
    2.4953   -2.4893   -0.3769 H   0  0  0  0  0  0  0  0  0  0  0  0
    0.5269   -1.3489   -1.0321 H   0  0  0  0  0  0  0  0  0  0  0  0
    1.3849    0.9642   -2.4103 H   0  0  0  0  0  0  0  0  0  0  0  0
    2.4313    3.3192   -1.5094 H   0  0  0  0  0  0  0  0  0  0  0  0
    2.6661    2.9651    1.2214 H   0  0  0  0  0  0  0  0  0  0  0  0
  1  2  1  0
  2  3  2  0
  3  4  1  0
  4  5  1  0
  5  6  1  0
  5  7  2  0
  7  8  1  0
  8  9  2  0
  8 10  1  0
 10 11  1  0
 11 12  1  0
 12 13  1  0
 13 14  1  0
 14 15  1  0
 15 16  2  0
 16 17  1  0
 17 18  2  0
 18 19  1  0
  7  2  1  0
 14 10  1  0
 19 15  1  0
  1 20  1  0
  1 21  1  0
  1 22  1  0
  6 23  1  0
  6 24  1  0
  6 25  1  0
 11 26  1  0
 11 27  1  0
 12 28  1  0
 12 29  1  0
 13 30  1  0
 13 31  1  0
 14 32  1  0
 16 33  1  0
 17 34  1  0
 18 35  1  0
M  END
$$$$
