
     RDKit          3D

 43 44  0  0  0  0  0  0  0  0999 V2000
    5.4005    2.2885   -0.0450 C   0  0  0  0  0  0  0  0  0  0  0  0
    5.7736    1.2492   -1.0910 C   0  0  0  0  0  0  0  0  0  0  0  0
    4.7759    1.1586   -2.2505 C   0  0  0  0  0  0  0  0  0  0  0  0
    3.3699    0.7080   -1.8533 C   0  0  0  0  0  0  0  0  0  0  0  0
    3.2883   -0.7498   -1.4197 C   0  0  0  0  0  0  0  0  0  0  0  0
    4.2132   -1.5346   -1.5848 O   0  0  0  0  0  0  0  0  0  0  0  0
    2.0563   -1.0377   -0.8638 N   0  0  0  0  0  0  0  0  0  0  0  0
    1.6721   -2.2905   -0.4071 C   0  0  0  0  0  0  0  0  0  0  0  0
    2.4086   -3.3997   -0.4587 N   0  0  0  0  0  0  0  0  0  0  0  0
    1.6113   -4.4066    0.0575 O   0  0  0  0  0  0  0  0  0  0  0  0
    0.3678   -3.9209    0.4368 N   0  0  0  0  0  0  0  0  0  0  0  0
    0.4112   -2.6099    0.1751 C   0  0  0  0  0  0  0  0  0  0  0  0
   -0.7174   -1.7381    0.4664 C   0  0  0  0  0  0  0  0  0  0  0  0
   -2.0023   -2.0773    0.0253 C   0  0  0  0  0  0  0  0  0  0  0  0
   -3.0917   -1.2355    0.2840 C   0  0  0  0  0  0  0  0  0  0  0  0
   -2.9088   -0.0483    0.9905 C   0  0  0  0  0  0  0  0  0  0  0  0
   -3.8719    0.8631    1.3156 O   0  0  0  0  0  0  0  0  0  0  0  0
   -5.2092    0.6748    0.8409 C   0  0  0  0  0  0  0  0  0  0  0  0
   -5.8440    2.0617    0.7611 C   0  0  0  0  0  0  0  0  0  0  0  0
   -5.9916   -0.1998    1.8165 C   0  0  0  0  0  0  0  0  0  0  0  0
   -1.6293    0.2806    1.4474 C   0  0  0  0  0  0  0  0  0  0  0  0
   -0.5389   -0.5557    1.1925 C   0  0  0  0  0  0  0  0  0  0  0  0
    6.2057    2.3860    0.6904 H   0  0  0  0  0  0  0  0  0  0  0  0
    5.2408    3.2694   -0.5036 H   0  0  0  0  0  0  0  0  0  0  0  0
    4.4930    2.0058    0.4963 H   0  0  0  0  0  0  0  0  0  0  0  0
    6.7553    1.5117   -1.5038 H   0  0  0  0  0  0  0  0  0  0  0  0
    5.8905    0.2740   -0.6063 H   0  0  0  0  0  0  0  0  0  0  0  0
    5.1806    0.4736   -3.0058 H   0  0  0  0  0  0  0  0  0  0  0  0
    4.7040    2.1424   -2.7309 H   0  0  0  0  0  0  0  0  0  0  0  0
    2.9669    1.3484   -1.0619 H   0  0  0  0  0  0  0  0  0  0  0  0
    2.7123    0.8153   -2.7251 H   0  0  0  0  0  0  0  0  0  0  0  0
    1.3618   -0.3061   -0.8087 H   0  0  0  0  0  0  0  0  0  0  0  0
   -2.1682   -3.0033   -0.5236 H   0  0  0  0  0  0  0  0  0  0  0  0
   -4.0668   -1.5495   -0.0724 H   0  0  0  0  0  0  0  0  0  0  0  0
   -5.2254    0.2534   -0.1704 H   0  0  0  0  0  0  0  0  0  0  0  0
   -5.2753    2.7011    0.0770 H   0  0  0  0  0  0  0  0  0  0  0  0
   -5.8321    2.5581    1.7379 H   0  0  0  0  0  0  0  0  0  0  0  0
   -6.8781    2.0066    0.4071 H   0  0  0  0  0  0  0  0  0  0  0  0
   -5.9740    0.2280    2.8251 H   0  0  0  0  0  0  0  0  0  0  0  0
   -7.0338   -0.3088    1.5008 H   0  0  0  0  0  0  0  0  0  0  0  0
   -5.5515   -1.1987    1.8951 H   0  0  0  0  0  0  0  0  0  0  0  0
   -1.4850    1.1950    2.0195 H   0  0  0  0  0  0  0  0  0  0  0  0
    0.4356   -0.2824    1.5913 H   0  0  0  0  0  0  0  0  0  0  0  0
  1  2  1  0
  2  3  1  0
  3  4  1  0
  4  5  1  0
  5  6  2  0
  5  7  1  0
  7  8  1  0
  8  9  2  0
  9 10  1  0
 10 11  1  0
 11 12  2  0
 12 13  1  0
 13 14  2  0
 14 15  1  0
 15 16  2  0
 16 17  1  0
 17 18  1  0
 18 19  1  0
 18 20  1  0
 16 21  1  0
 21 22  2  0
 12  8  1  0
 22 13  1  0
  1 23  1  0
  1 24  1  0
  1 25  1  0
  2 26  1  0
  2 27  1  0
  3 28  1  0
  3 29  1  0
  4 30  1  0
  4 31  1  0
  7 32  1  0
 14 33  1  0
 15 34  1  0
 18 35  1  0
 19 36  1  0
 19 37  1  0
 19 38  1  0
 20 39  1  0
 20 40  1  0
 20 41  1  0
 21 42  1  0
 22 43  1  0
M  END
$$$$
