
     RDKit          3D

 54 56  0  0  0  0  0  0  0  0999 V2000
    5.4883   -2.0701    0.9068 C   0  0  0  0  0  0  0  0  0  0  0  0
    5.0526   -1.8202   -0.5166 C   0  0  0  0  0  0  0  0  0  0  0  0
    5.9026   -1.7267   -1.4048 O   0  0  0  0  0  0  0  0  0  0  0  0
    3.6890   -1.7562   -0.7710 N   0  0  0  0  0  0  0  0  0  0  0  0
    3.2542   -1.4084   -2.1157 C   0  0  0  0  0  0  0  0  0  0  0  0
    2.6619   -1.7347    0.2704 C   0  0  0  0  0  0  0  0  0  0  0  0
    2.3654   -0.3283    0.7020 C   0  0  0  0  0  0  0  0  0  0  0  0
    3.2733    0.5814    1.0100 N   0  0  0  0  0  0  0  0  0  0  0  0
    2.5850    1.7269    1.3051 C   0  0  0  0  0  0  0  0  0  0  0  0
    3.0722    2.9916    1.6650 C   0  0  0  0  0  0  0  0  0  0  0  0
    2.1569    4.0184    1.9234 C   0  0  0  0  0  0  0  0  0  0  0  0
    0.7836    3.7893    1.8263 C   0  0  0  0  0  0  0  0  0  0  0  0
    0.2799    2.5326    1.4703 C   0  0  0  0  0  0  0  0  0  0  0  0
    1.2137    1.5193    1.2157 C   0  0  0  0  0  0  0  0  0  0  0  0
    1.0961    0.1932    0.8561 N   0  0  0  0  0  0  0  0  0  0  0  0
   -0.1700   -0.5131    0.7292 C   0  0  0  0  0  0  0  0  0  0  0  0
   -0.6949   -0.4569   -0.7001 C   0  0  0  0  0  0  0  0  0  0  0  0
    0.0288   -0.7988   -1.6396 O   0  0  0  0  0  0  0  0  0  0  0  0
   -1.9998    0.0305   -0.8901 N   0  0  0  0  0  0  0  0  0  0  0  0
   -2.9894   -0.1627    0.1165 C   0  0  0  0  0  0  0  0  0  0  0  0
   -3.2226   -1.4368    0.6515 C   0  0  0  0  0  0  0  0  0  0  0  0
   -4.1696   -1.6106    1.6618 C   0  0  0  0  0  0  0  0  0  0  0  0
   -4.8815   -0.5142    2.1461 C   0  0  0  0  0  0  0  0  0  0  0  0
   -4.6492    0.7561    1.6206 C   0  0  0  0  0  0  0  0  0  0  0  0
   -3.7044    0.9327    0.6082 C   0  0  0  0  0  0  0  0  0  0  0  0
   -2.4679    0.1510   -2.2947 C   0  0  0  0  0  0  0  0  0  0  0  0
   -3.5008    1.2546   -2.5372 C   0  0  0  0  0  0  0  0  0  0  0  0
   -2.9761   -1.1862   -2.8487 C   0  0  0  0  0  0  0  0  0  0  0  0
    5.1287   -1.2823    1.5710 H   0  0  0  0  0  0  0  0  0  0  0  0
    5.1340   -3.0486    1.2414 H   0  0  0  0  0  0  0  0  0  0  0  0
    6.5822   -2.0713    0.9533 H   0  0  0  0  0  0  0  0  0  0  0  0
    2.9651   -0.3534   -2.1369 H   0  0  0  0  0  0  0  0  0  0  0  0
    2.3989   -2.0335   -2.3884 H   0  0  0  0  0  0  0  0  0  0  0  0
    4.0447   -1.5680   -2.8539 H   0  0  0  0  0  0  0  0  0  0  0  0
    2.9900   -2.3059    1.1433 H   0  0  0  0  0  0  0  0  0  0  0  0
    1.7816   -2.2481   -0.1269 H   0  0  0  0  0  0  0  0  0  0  0  0
    4.1410    3.1601    1.7346 H   0  0  0  0  0  0  0  0  0  0  0  0
    2.5239    5.0038    2.2002 H   0  0  0  0  0  0  0  0  0  0  0  0
    0.0916    4.6038    2.0303 H   0  0  0  0  0  0  0  0  0  0  0  0
   -0.7889    2.3662    1.3958 H   0  0  0  0  0  0  0  0  0  0  0  0
   -0.8499   -0.0668    1.4581 H   0  0  0  0  0  0  0  0  0  0  0  0
   -0.0229   -1.5573    1.0208 H   0  0  0  0  0  0  0  0  0  0  0  0
   -2.6932   -2.3067    0.2704 H   0  0  0  0  0  0  0  0  0  0  0  0
   -4.3588   -2.6016    2.0675 H   0  0  0  0  0  0  0  0  0  0  0  0
   -5.6204   -0.6498    2.9326 H   0  0  0  0  0  0  0  0  0  0  0  0
   -5.2029    1.6109    2.0019 H   0  0  0  0  0  0  0  0  0  0  0  0
   -3.5198    1.9334    0.2270 H   0  0  0  0  0  0  0  0  0  0  0  0
   -1.5903    0.4305   -2.8930 H   0  0  0  0  0  0  0  0  0  0  0  0
   -3.1461    2.2143   -2.1476 H   0  0  0  0  0  0  0  0  0  0  0  0
   -3.6796    1.3795   -3.6111 H   0  0  0  0  0  0  0  0  0  0  0  0
   -4.4655    1.0250   -2.0738 H   0  0  0  0  0  0  0  0  0  0  0  0
   -2.2294   -1.9773   -2.7259 H   0  0  0  0  0  0  0  0  0  0  0  0
   -3.8902   -1.5100   -2.3400 H   0  0  0  0  0  0  0  0  0  0  0  0
   -3.2012   -1.1006   -3.9171 H   0  0  0  0  0  0  0  0  0  0  0  0
  1  2  1  0
  2  3  2  0
  2  4  1  0
  4  5  1  0
  4  6  1  0
  6  7  1  0
  7  8  2  0
  8  9  1  0
  9 10  2  0
 10 11  1  0
 11 12  2  0
 12 13  1  0
 13 14  2  0
 14 15  1  0
 15 16  1  0
 16 17  1  0
 17 18  2  0
 17 19  1  0
 19 20  1  0
 20 21  2  0
 21 22  1  0
 22 23  2  0
 23 24  1  0
 24 25  2  0
 19 26  1  0
 26 27  1  0
 26 28  1  0
 15  7  1  0
 25 20  1  0
 14  9  1  0
  1 29  1  0
  1 30  1  0
  1 31  1  0
  5 32  1  0
  5 33  1  0
  5 34  1  0
  6 35  1  0
  6 36  1  0
 10 37  1  0
 11 38  1  0
 12 39  1  0
 13 40  1  0
 16 41  1  0
 16 42  1  0
 21 43  1  0
 22 44  1  0
 23 45  1  0
 24 46  1  0
 25 47  1  0
 26 48  1  0
 27 49  1  0
 27 50  1  0
 27 51  1  0
 28 52  1  0
 28 53  1  0
 28 54  1  0
M  END
$$$$
