
     RDKit          3D

 52 55  0  0  0  0  0  0  0  0999 V2000
   -4.2061   -0.9635   -2.8092 C   0  0  0  0  0  0  0  0  0  0  0  0
   -4.8776   -1.1230   -1.4682 C   0  0  0  0  0  0  0  0  0  0  0  0
   -5.7773   -1.9621   -1.3545 O   0  0  0  0  0  0  0  0  0  0  0  0
   -4.5342   -0.2752   -0.4233 N   0  0  0  0  0  0  0  0  0  0  0  0
   -5.4943   -0.1470    0.6757 C   0  0  0  0  0  0  0  0  0  0  0  0
   -5.6095    1.3118    1.0800 C   0  0  0  0  0  0  0  0  0  0  0  0
   -4.3612    1.8259    1.5479 O   0  0  0  0  0  0  0  0  0  0  0  0
   -3.2884    1.4658    0.7665 C   0  0  0  0  0  0  0  0  0  0  0  0
   -2.1183    2.1860    1.0314 C   0  0  0  0  0  0  0  0  0  0  0  0
   -0.9473    1.8968    0.3398 C   0  0  0  0  0  0  0  0  0  0  0  0
   -0.9461    0.8503   -0.5818 C   0  0  0  0  0  0  0  0  0  0  0  0
    0.5537    0.4605   -1.4689 S   0  0  0  0  0  6  0  0  0  0  0  0
    1.3691    1.6545   -1.4615 O   0  0  0  0  0  0  0  0  0  0  0  0
    0.1533   -0.1608   -2.7148 O   0  0  0  0  0  0  0  0  0  0  0  0
    1.2901   -0.7191   -0.5179 N   0  0  0  0  0  0  0  0  0  0  0  0
    0.6802   -2.0635   -0.4351 C   0  0  0  0  0  0  0  0  0  0  0  0
    0.5776   -2.3500    1.0538 C   0  0  0  0  0  0  0  0  0  0  0  0
    1.8079   -1.6589    1.6063 C   0  0  0  0  0  0  0  0  0  0  0  0
    1.8476   -0.3451    0.8101 C   0  0  0  0  0  0  0  0  0  0  0  0
    3.2497    0.2210    0.7919 C   0  0  0  0  0  0  0  0  0  0  0  0
    3.6749    1.0538    1.8382 C   0  0  0  0  0  0  0  0  0  0  0  0
    4.9703    1.5715    1.8536 C   0  0  0  0  0  0  0  0  0  0  0  0
    5.8612    1.2580    0.8284 C   0  0  0  0  0  0  0  0  0  0  0  0
    5.4684    0.4145   -0.2153 C   0  0  0  0  0  0  0  0  0  0  0  0
    6.4095    0.1081   -1.3425 C   0  0  0  0  0  0  0  0  0  0  0  0
    4.1612   -0.0918   -0.2297 C   0  0  0  0  0  0  0  0  0  0  0  0
   -2.1221    0.1399   -0.8687 C   0  0  0  0  0  0  0  0  0  0  0  0
   -3.3183    0.4470   -0.2127 C   0  0  0  0  0  0  0  0  0  0  0  0
   -3.4086   -1.7014   -2.9198 H   0  0  0  0  0  0  0  0  0  0  0  0
   -3.8340    0.0513   -2.9646 H   0  0  0  0  0  0  0  0  0  0  0  0
   -4.9511   -1.1449   -3.5914 H   0  0  0  0  0  0  0  0  0  0  0  0
   -5.1259   -0.7628    1.5055 H   0  0  0  0  0  0  0  0  0  0  0  0
   -6.4805   -0.5215    0.3826 H   0  0  0  0  0  0  0  0  0  0  0  0
   -5.9568    1.9346    0.2461 H   0  0  0  0  0  0  0  0  0  0  0  0
   -6.3330    1.4162    1.8951 H   0  0  0  0  0  0  0  0  0  0  0  0
   -2.1289    2.9800    1.7747 H   0  0  0  0  0  0  0  0  0  0  0  0
   -0.0470    2.4771    0.5316 H   0  0  0  0  0  0  0  0  0  0  0  0
    1.3550   -2.7753   -0.9239 H   0  0  0  0  0  0  0  0  0  0  0  0
   -0.2955   -2.1384   -0.9183 H   0  0  0  0  0  0  0  0  0  0  0  0
   -0.3297   -1.8940    1.4678 H   0  0  0  0  0  0  0  0  0  0  0  0
    0.5565   -3.4209    1.2737 H   0  0  0  0  0  0  0  0  0  0  0  0
    1.7440   -1.4896    2.6859 H   0  0  0  0  0  0  0  0  0  0  0  0
    2.6961   -2.2750    1.4155 H   0  0  0  0  0  0  0  0  0  0  0  0
    1.1721    0.3691    1.2935 H   0  0  0  0  0  0  0  0  0  0  0  0
    2.9968    1.3120    2.6483 H   0  0  0  0  0  0  0  0  0  0  0  0
    5.2852    2.2257    2.6623 H   0  0  0  0  0  0  0  0  0  0  0  0
    6.8637    1.6790    0.8462 H   0  0  0  0  0  0  0  0  0  0  0  0
    7.4501    0.1365   -1.0027 H   0  0  0  0  0  0  0  0  0  0  0  0
    6.2264   -0.8952   -1.7412 H   0  0  0  0  0  0  0  0  0  0  0  0
    6.2803    0.8387   -2.1468 H   0  0  0  0  0  0  0  0  0  0  0  0
    3.8479   -0.7306   -1.0538 H   0  0  0  0  0  0  0  0  0  0  0  0
   -2.0573   -0.6762   -1.5770 H   0  0  0  0  0  0  0  0  0  0  0  0
  1  2  1  0
  2  3  2  0
  2  4  1  0
  4  5  1  0
  5  6  1  0
  6  7  1  0
  7  8  1  0
  8  9  2  0
  9 10  1  0
 10 11  2  0
 11 12  1  0
 12 13  2  0
 12 14  2  0
 12 15  1  0
 15 16  1  0
 16 17  1  0
 17 18  1  0
 18 19  1  0
 19 20  1  0
 20 21  2  0
 21 22  1  0
 22 23  2  0
 23 24  1  0
 24 25  1  0
 24 26  2  0
 11 27  1  0
 27 28  2  0
 28  4  1  0
 28  8  1  0
 19 15  1  0
 26 20  1  0
  1 29  1  0
  1 30  1  0
  1 31  1  0
  5 32  1  0
  5 33  1  0
  6 34  1  0
  6 35  1  0
  9 36  1  0
 10 37  1  0
 16 38  1  0
 16 39  1  0
 17 40  1  0
 17 41  1  0
 18 42  1  0
 18 43  1  0
 19 44  1  0
 21 45  1  0
 22 46  1  0
 23 47  1  0
 25 48  1  0
 25 49  1  0
 25 50  1  0
 26 51  1  0
 27 52  1  0
M  END
$$$$
