
     RDKit          3D

 48 52  0  0  0  0  0  0  0  0999 V2000
    4.8939    2.1442    0.2412 O   0  0  0  0  0  0  0  0  0  0  0  0
    3.8809    1.6994   -0.2940 C   0  0  0  0  0  0  0  0  0  0  0  0
    3.1091    2.5125   -1.0698 N   0  0  0  0  0  0  0  0  0  0  0  0
    1.9730    2.1314   -1.7003 C   0  0  0  0  0  0  0  0  0  0  0  0
    1.3842    3.1637   -2.3852 O   0  0  0  0  0  0  0  0  0  0  0  0
    1.5176    0.8704   -1.6301 C   0  0  0  0  0  0  0  0  0  0  0  0
    0.2471    0.5197   -2.3114 C   0  0  0  0  0  0  0  0  0  0  0  0
   -0.3707    1.3262   -3.1322 N   0  0  0  0  0  0  0  0  0  0  0  0
   -1.4877    0.6751   -3.5612 N   0  0  0  0  0  0  0  0  0  0  0  0
   -1.7639   -0.5345   -2.8017 C   0  0  0  0  0  0  0  0  0  0  0  0
   -2.9315   -0.3691   -1.8492 C   0  0  0  0  0  0  0  0  0  0  0  0
   -3.0984    0.8001   -1.0659 C   0  0  0  0  0  0  0  0  0  0  0  0
   -4.1681    0.9305   -0.1736 C   0  0  0  0  0  0  0  0  0  0  0  0
   -5.0533   -0.1191   -0.0771 C   0  0  0  0  0  0  0  0  0  0  0  0
   -4.9022   -1.2613   -0.8251 C   0  0  0  0  0  0  0  0  0  0  0  0
   -3.8580   -1.4188   -1.7129 C   0  0  0  0  0  0  0  0  0  0  0  0
   -5.8783   -2.1758   -0.5794 O   0  0  0  0  0  0  0  0  0  0  0  0
   -6.6629   -1.4752    0.4086 C   0  0  0  0  0  0  0  0  0  0  0  0
   -6.1438   -0.1690    0.7332 O   0  0  0  0  0  0  0  0  0  0  0  0
   -0.4428   -0.8055   -2.0960 C   0  0  0  0  0  0  0  0  0  0  0  0
    2.3289   -0.1018   -0.8478 C   0  0  0  0  0  0  0  0  0  0  0  0
    2.0081   -1.2899   -0.8269 O   0  0  0  0  0  0  0  0  0  0  0  0
    3.4428    0.3918   -0.1836 N   0  0  0  0  0  0  0  0  0  0  0  0
    4.2099   -0.5178    0.6549 C   0  0  0  0  0  0  0  0  0  0  0  0
    3.6748   -0.5605    2.0705 C   0  0  0  0  0  0  0  0  0  0  0  0
    2.7054   -1.5048    2.4390 C   0  0  0  0  0  0  0  0  0  0  0  0
    2.1960   -1.5274    3.7383 C   0  0  0  0  0  0  0  0  0  0  0  0
    2.6458   -0.6046    4.6806 C   0  0  0  0  0  0  0  0  0  0  0  0
    3.6032    0.3432    4.3245 C   0  0  0  0  0  0  0  0  0  0  0  0
    4.1138    0.3677    3.0258 C   0  0  0  0  0  0  0  0  0  0  0  0
    3.4044    3.4769   -1.1594 H   0  0  0  0  0  0  0  0  0  0  0  0
    0.6062    2.8031   -2.8701 H   0  0  0  0  0  0  0  0  0  0  0  0
   -2.2390    1.2407   -3.9550 H   0  0  0  0  0  0  0  0  0  0  0  0
   -1.9886   -1.3214   -3.5308 H   0  0  0  0  0  0  0  0  0  0  0  0
   -2.3897    1.6223   -1.1524 H   0  0  0  0  0  0  0  0  0  0  0  0
   -4.2965    1.8267    0.4230 H   0  0  0  0  0  0  0  0  0  0  0  0
   -3.7679   -2.3372   -2.2842 H   0  0  0  0  0  0  0  0  0  0  0  0
   -6.6931   -2.0778    1.3237 H   0  0  0  0  0  0  0  0  0  0  0  0
   -7.6848   -1.3620    0.0285 H   0  0  0  0  0  0  0  0  0  0  0  0
    0.1244   -1.5843   -2.6163 H   0  0  0  0  0  0  0  0  0  0  0  0
   -0.5469   -1.0522   -1.0364 H   0  0  0  0  0  0  0  0  0  0  0  0
    4.1923   -1.5272    0.2256 H   0  0  0  0  0  0  0  0  0  0  0  0
    5.2654   -0.2195    0.6736 H   0  0  0  0  0  0  0  0  0  0  0  0
    2.3381   -2.2283    1.7131 H   0  0  0  0  0  0  0  0  0  0  0  0
    1.4462   -2.2643    4.0141 H   0  0  0  0  0  0  0  0  0  0  0  0
    2.2484   -0.6222    5.6919 H   0  0  0  0  0  0  0  0  0  0  0  0
    3.9517    1.0665    5.0573 H   0  0  0  0  0  0  0  0  0  0  0  0
    4.8564    1.1194    2.7619 H   0  0  0  0  0  0  0  0  0  0  0  0
  1  2  2  0
  2  3  1  0
  3  4  1  0
  4  5  1  0
  4  6  2  0
  6  7  1  0
  7  8  2  0
  8  9  1  0
  9 10  1  0
 10 11  1  0
 11 12  2  0
 12 13  1  0
 13 14  2  0
 14 15  1  0
 15 16  2  0
 15 17  1  0
 17 18  1  0
 18 19  1  0
 10 20  1  0
  6 21  1  0
 21 22  2  0
 21 23  1  0
 23 24  1  0
 24 25  1  0
 25 26  2  0
 26 27  1  0
 27 28  2  0
 28 29  1  0
 29 30  2  0
 23  2  1  0
 30 25  1  0
 20  7  1  0
 16 11  1  0
 19 14  1  0
  3 31  1  0
  5 32  1  0
  9 33  1  0
 10 34  1  0
 12 35  1  0
 13 36  1  0
 16 37  1  0
 18 38  1  0
 18 39  1  0
 20 40  1  0
 20 41  1  0
 24 42  1  0
 24 43  1  0
 26 44  1  0
 27 45  1  0
 28 46  1  0
 29 47  1  0
 30 48  1  0
M  END
$$$$
