
     RDKit          3D

 40 43  0  0  0  0  0  0  0  0999 V2000
    4.2730   -3.0368    0.4371 C   0  0  0  0  0  0  0  0  0  0  0  0
    3.5735   -1.8306    0.1656 O   0  0  0  0  0  0  0  0  0  0  0  0
    4.3219   -0.6807    0.0639 C   0  0  0  0  0  0  0  0  0  0  0  0
    5.6927   -0.5915    0.3249 C   0  0  0  0  0  0  0  0  0  0  0  0
    6.3524    0.6326    0.1983 C   0  0  0  0  0  0  0  0  0  0  0  0
    5.6498    1.7677   -0.1961 C   0  0  0  0  0  0  0  0  0  0  0  0
    4.2807    1.6866   -0.4558 C   0  0  0  0  0  0  0  0  0  0  0  0
    3.5944    0.4745   -0.3062 C   0  0  0  0  0  0  0  0  0  0  0  0
    2.2206    0.3576   -0.6170 N   0  0  0  0  0  0  0  0  0  0  0  0
    1.3397    1.3844   -0.0401 C   0  0  0  0  0  0  0  0  0  0  0  0
   -0.1314    1.0467   -0.0189 C   0  0  0  0  0  0  0  0  0  0  0  0
   -1.1021    1.9520   -0.3954 N   0  0  0  0  0  0  0  0  0  0  0  0
   -2.2069    1.2664   -0.2562 C   0  0  0  0  0  0  0  0  0  0  0  0
   -3.4966    1.6055   -0.4802 N   0  0  0  0  0  0  0  0  0  0  0  0
   -4.4891    0.6877   -0.2614 C   0  0  0  0  0  0  0  0  0  0  0  0
   -4.2612   -0.5556    0.1816 C   0  0  0  0  0  0  0  0  0  0  0  0
   -2.8810   -1.0053    0.4594 C   0  0  0  0  0  0  0  0  0  0  0  0
   -2.5823   -2.1170    0.8722 O   0  0  0  0  0  0  0  0  0  0  0  0
   -1.9228   -0.0106    0.2020 N   0  0  0  0  0  0  0  0  0  0  0  0
   -0.5853   -0.1576    0.3728 N   0  0  0  0  0  0  0  0  0  0  0  0
   -5.4966   -1.3564    0.3388 C   0  0  0  0  0  0  0  0  0  0  0  0
   -6.5240   -0.4910   -0.4052 C   0  0  0  0  0  0  0  0  0  0  0  0
   -5.9443    0.9304   -0.4775 C   0  0  0  0  0  0  0  0  0  0  0  0
    3.5456   -3.8544    0.4271 H   0  0  0  0  0  0  0  0  0  0  0  0
    5.0191   -3.2464   -0.3366 H   0  0  0  0  0  0  0  0  0  0  0  0
    4.7296   -3.0111    1.4318 H   0  0  0  0  0  0  0  0  0  0  0  0
    6.2747   -1.4545    0.6283 H   0  0  0  0  0  0  0  0  0  0  0  0
    7.4190    0.6970    0.3983 H   0  0  0  0  0  0  0  0  0  0  0  0
    6.1682    2.7155   -0.3145 H   0  0  0  0  0  0  0  0  0  0  0  0
    3.7615    2.5764   -0.7987 H   0  0  0  0  0  0  0  0  0  0  0  0
    1.9031   -0.5699   -0.3134 H   0  0  0  0  0  0  0  0  0  0  0  0
    1.6326    1.5877    0.9988 H   0  0  0  0  0  0  0  0  0  0  0  0
    1.4595    2.3168   -0.6048 H   0  0  0  0  0  0  0  0  0  0  0  0
   -3.7396    2.5277   -0.8288 H   0  0  0  0  0  0  0  0  0  0  0  0
   -5.4177   -2.3496   -0.1126 H   0  0  0  0  0  0  0  0  0  0  0  0
   -5.7582   -1.4610    1.3967 H   0  0  0  0  0  0  0  0  0  0  0  0
   -6.6642   -0.8812   -1.4221 H   0  0  0  0  0  0  0  0  0  0  0  0
   -7.5040   -0.5085    0.0828 H   0  0  0  0  0  0  0  0  0  0  0  0
   -6.3507    1.5654    0.3167 H   0  0  0  0  0  0  0  0  0  0  0  0
   -6.1536    1.3905   -1.4478 H   0  0  0  0  0  0  0  0  0  0  0  0
  1  2  1  0
  2  3  1  0
  3  4  2  0
  4  5  1  0
  5  6  2  0
  6  7  1  0
  7  8  2  0
  8  9  1  0
  9 10  1  0
 10 11  1  0
 11 12  1  0
 12 13  2  0
 13 14  1  0
 14 15  1  0
 15 16  2  0
 16 17  1  0
 17 18  2  0
 17 19  1  0
 19 20  1  0
 16 21  1  0
 21 22  1  0
 22 23  1  0
  8  3  1  0
 20 11  2  0
 19 13  1  0
 23 15  1  0
  1 24  1  0
  1 25  1  0
  1 26  1  0
  4 27  1  0
  5 28  1  0
  6 29  1  0
  7 30  1  0
  9 31  1  0
 10 32  1  0
 10 33  1  0
 14 34  1  0
 21 35  1  0
 21 36  1  0
 22 37  1  0
 22 38  1  0
 23 39  1  0
 23 40  1  0
M  END
$$$$
