
     RDKit          3D

 53 56  0  0  0  0  0  0  0  0999 V2000
   -5.9294    2.5320   -2.6616 C   0  0  0  0  0  0  0  0  0  0  0  0
   -5.8422    1.1287   -2.8739 O   0  0  0  0  0  0  0  0  0  0  0  0
   -5.2410    0.3883   -1.8938 C   0  0  0  0  0  0  0  0  0  0  0  0
   -5.0866   -0.9650   -2.1997 C   0  0  0  0  0  0  0  0  0  0  0  0
   -4.4876   -1.8403   -1.2912 C   0  0  0  0  0  0  0  0  0  0  0  0
   -4.0280   -1.3626   -0.0628 C   0  0  0  0  0  0  0  0  0  0  0  0
   -3.4598   -2.1818    0.8819 O   0  0  0  0  0  0  0  0  0  0  0  0
   -2.5197   -3.1130    0.3474 C   0  0  0  0  0  0  0  0  0  0  0  0
   -4.1975   -0.0061    0.2681 C   0  0  0  0  0  0  0  0  0  0  0  0
   -3.7704    0.5151    1.5719 C   0  0  0  0  0  0  0  0  0  0  0  0
   -4.6561    0.8715    2.5166 C   0  0  0  0  0  0  0  0  0  0  0  0
   -3.8742    1.3912    3.9779 S   0  0  0  0  0  0  0  0  0  0  0  0
   -2.3005    1.0705    3.2741 C   0  0  0  0  0  0  0  0  0  0  0  0
   -1.1889    1.2483    3.9055 N   0  0  0  0  0  0  0  0  0  0  0  0
   -0.0609    0.9003    3.2075 C   0  0  0  0  0  0  0  0  0  0  0  0
   -0.0430    0.5038    1.9271 C   0  0  0  0  0  0  0  0  0  0  0  0
    1.2409    0.1079    1.3120 C   0  0  0  0  0  0  0  0  0  0  0  0
    1.4544   -1.0725    1.0653 O   0  0  0  0  0  0  0  0  0  0  0  0
    2.0903    1.1805    1.1134 N   0  0  0  0  0  0  0  0  0  0  0  0
    3.3930    1.1501    0.5694 C   0  0  0  0  0  0  0  0  0  0  0  0
    4.0662    2.3707    0.4590 C   0  0  0  0  0  0  0  0  0  0  0  0
    5.3578    2.4197   -0.0654 C   0  0  0  0  0  0  0  0  0  0  0  0
    5.9906    1.2490   -0.4862 C   0  0  0  0  0  0  0  0  0  0  0  0
    5.3361    0.0223   -0.3862 C   0  0  0  0  0  0  0  0  0  0  0  0
    5.8986   -1.2067   -0.7920 N   0  0  0  0  0  0  0  0  0  0  0  0
    7.1561   -1.4252   -1.3235 C   0  0  0  0  0  0  0  0  0  0  0  0
    7.3968   -2.8809   -1.6385 C   0  0  0  0  0  0  0  0  0  0  0  0
    8.0319   -0.5898   -1.5177 O   0  0  0  0  0  0  0  0  0  0  0  0
    4.0358   -0.0164    0.1436 C   0  0  0  0  0  0  0  0  0  0  0  0
   -1.3251    0.4150    1.1902 C   0  0  0  0  0  0  0  0  0  0  0  0
   -1.3148    0.2443   -0.0259 O   0  0  0  0  0  0  0  0  0  0  0  0
   -2.4453    0.6241    1.9748 N   0  0  0  0  0  0  0  0  0  0  0  0
   -4.8026    0.8641   -0.6573 C   0  0  0  0  0  0  0  0  0  0  0  0
   -6.5768    2.7605   -1.8087 H   0  0  0  0  0  0  0  0  0  0  0  0
   -4.9366    2.9765   -2.5354 H   0  0  0  0  0  0  0  0  0  0  0  0
   -6.3830    2.9774   -3.5523 H   0  0  0  0  0  0  0  0  0  0  0  0
   -5.4379   -1.3429   -3.1572 H   0  0  0  0  0  0  0  0  0  0  0  0
   -4.4038   -2.8894   -1.5557 H   0  0  0  0  0  0  0  0  0  0  0  0
   -1.8859   -3.4548    1.1713 H   0  0  0  0  0  0  0  0  0  0  0  0
   -3.0357   -3.9868   -0.0622 H   0  0  0  0  0  0  0  0  0  0  0  0
   -1.8701   -2.6543   -0.4067 H   0  0  0  0  0  0  0  0  0  0  0  0
   -5.7333    0.8313    2.4203 H   0  0  0  0  0  0  0  0  0  0  0  0
    0.8624    0.9435    3.7835 H   0  0  0  0  0  0  0  0  0  0  0  0
    1.7416    2.1002    1.3559 H   0  0  0  0  0  0  0  0  0  0  0  0
    3.6012    3.3001    0.7768 H   0  0  0  0  0  0  0  0  0  0  0  0
    5.8775    3.3710   -0.1498 H   0  0  0  0  0  0  0  0  0  0  0  0
    6.9947    1.3304   -0.8906 H   0  0  0  0  0  0  0  0  0  0  0  0
    5.3070   -2.0202   -0.6707 H   0  0  0  0  0  0  0  0  0  0  0  0
    7.7270   -3.3973   -0.7334 H   0  0  0  0  0  0  0  0  0  0  0  0
    6.4883   -3.3543   -2.0219 H   0  0  0  0  0  0  0  0  0  0  0  0
    8.1709   -2.9628   -2.4069 H   0  0  0  0  0  0  0  0  0  0  0  0
    3.5339   -0.9752    0.2145 H   0  0  0  0  0  0  0  0  0  0  0  0
   -4.9161    1.9099   -0.3910 H   0  0  0  0  0  0  0  0  0  0  0  0
  1  2  1  0
  2  3  1  0
  3  4  2  0
  4  5  1  0
  5  6  2  0
  6  7  1  0
  7  8  1  0
  6  9  1  0
  9 10  1  0
 10 11  2  0
 11 12  1  0
 12 13  1  0
 13 14  2  0
 14 15  1  0
 15 16  2  0
 16 17  1  0
 17 18  2  0
 17 19  1  0
 19 20  1  0
 20 21  2  0
 21 22  1  0
 22 23  2  0
 23 24  1  0
 24 25  1  0
 25 26  1  0
 26 27  1  0
 26 28  2  0
 24 29  2  0
 16 30  1  0
 30 31  2  0
 30 32  1  0
  9 33  2  0
 33  3  1  0
 32 10  1  0
 32 13  1  0
 29 20  1  0
  1 34  1  0
  1 35  1  0
  1 36  1  0
  4 37  1  0
  5 38  1  0
  8 39  1  0
  8 40  1  0
  8 41  1  0
 11 42  1  0
 15 43  1  0
 19 44  1  0
 21 45  1  0
 22 46  1  0
 23 47  1  0
 25 48  1  0
 27 49  1  0
 27 50  1  0
 27 51  1  0
 29 52  1  0
 33 53  1  0
M  END
$$$$
