
     RDKit          3D

 46 48  0  0  0  0  0  0  0  0999 V2000
    2.5410   -4.2095   -0.8538 C   0  0  0  0  0  0  0  0  0  0  0  0
    3.4512   -3.2927   -0.2653 O   0  0  0  0  0  0  0  0  0  0  0  0
    2.9437   -2.1125    0.2092 C   0  0  0  0  0  0  0  0  0  0  0  0
    1.5959   -1.7454    0.1770 C   0  0  0  0  0  0  0  0  0  0  0  0
    1.1750   -0.5048    0.6899 C   0  0  0  0  0  0  0  0  0  0  0  0
   -0.2904   -0.1147    0.6502 C   0  0  0  0  0  0  0  0  0  0  0  0
   -0.5226    1.1015   -0.1247 N   0  0  0  0  0  0  0  0  0  0  0  0
   -0.2703    0.9598   -1.5554 C   0  0  0  0  0  0  0  0  0  0  0  0
   -0.8894    2.2129   -2.1587 C   0  0  0  0  0  0  0  0  0  0  0  0
   -1.8466    2.7531   -1.0983 C   0  0  0  0  0  0  0  0  0  0  0  0
   -1.8529    1.7120    0.0275 C   0  0  0  0  0  0  0  0  0  0  0  0
   -3.0405    0.7569   -0.0008 C   0  0  0  0  0  0  0  0  0  0  0  0
   -3.5919    0.2406   -1.1864 C   0  0  0  0  0  0  0  0  0  0  0  0
   -4.6755   -0.6447   -1.1545 C   0  0  0  0  0  0  0  0  0  0  0  0
   -5.2278   -1.0284    0.0643 C   0  0  0  0  0  0  0  0  0  0  0  0
   -4.6903   -0.5262    1.2409 C   0  0  0  0  0  0  0  0  0  0  0  0
   -5.2163   -0.8944    2.4167 F   0  0  0  0  0  0  0  0  0  0  0  0
   -3.6102    0.3517    1.2196 C   0  0  0  0  0  0  0  0  0  0  0  0
    2.1224    0.3739    1.2446 C   0  0  0  0  0  0  0  0  0  0  0  0
    3.4706    0.0254    1.2817 C   0  0  0  0  0  0  0  0  0  0  0  0
    4.4886    0.7948    1.7885 O   0  0  0  0  0  0  0  0  0  0  0  0
    4.1350    2.0953    2.2434 C   0  0  0  0  0  0  0  0  0  0  0  0
    3.8655   -1.2173    0.7652 C   0  0  0  0  0  0  0  0  0  0  0  0
    5.1993   -1.5534    0.8075 O   0  0  0  0  0  0  0  0  0  0  0  0
    2.0561   -3.7753   -1.7344 H   0  0  0  0  0  0  0  0  0  0  0  0
    3.1118   -5.0818   -1.1859 H   0  0  0  0  0  0  0  0  0  0  0  0
    1.8009   -4.5550   -0.1244 H   0  0  0  0  0  0  0  0  0  0  0  0
    0.8478   -2.4084   -0.2461 H   0  0  0  0  0  0  0  0  0  0  0  0
   -0.5975    0.0412    1.6928 H   0  0  0  0  0  0  0  0  0  0  0  0
   -0.8882   -0.9523    0.2691 H   0  0  0  0  0  0  0  0  0  0  0  0
    0.7986    0.9091   -1.7863 H   0  0  0  0  0  0  0  0  0  0  0  0
   -0.7489    0.0652   -1.9718 H   0  0  0  0  0  0  0  0  0  0  0  0
   -0.1218    2.9619   -2.3845 H   0  0  0  0  0  0  0  0  0  0  0  0
   -1.4147    1.9838   -3.0919 H   0  0  0  0  0  0  0  0  0  0  0  0
   -2.8375    2.9701   -1.5110 H   0  0  0  0  0  0  0  0  0  0  0  0
   -1.4411    3.7012   -0.7196 H   0  0  0  0  0  0  0  0  0  0  0  0
   -1.8860    2.2576    0.9799 H   0  0  0  0  0  0  0  0  0  0  0  0
   -3.1881    0.5188   -2.1564 H   0  0  0  0  0  0  0  0  0  0  0  0
   -5.0873   -1.0324   -2.0833 H   0  0  0  0  0  0  0  0  0  0  0  0
   -6.0690   -1.7124    0.1052 H   0  0  0  0  0  0  0  0  0  0  0  0
   -3.2192    0.7128    2.1666 H   0  0  0  0  0  0  0  0  0  0  0  0
    1.7698    1.3264    1.6285 H   0  0  0  0  0  0  0  0  0  0  0  0
    3.4566    2.0412    3.1005 H   0  0  0  0  0  0  0  0  0  0  0  0
    3.7052    2.6951    1.4342 H   0  0  0  0  0  0  0  0  0  0  0  0
    5.0515    2.5931    2.5749 H   0  0  0  0  0  0  0  0  0  0  0  0
    5.6377   -0.7939    1.2340 H   0  0  0  0  0  0  0  0  0  0  0  0
  1  2  1  0
  2  3  1  0
  3  4  2  0
  4  5  1  0
  5  6  1  0
  6  7  1  0
  7  8  1  0
  8  9  1  0
  9 10  1  0
 10 11  1  0
 11 12  1  0
 12 13  2  0
 13 14  1  0
 14 15  2  0
 15 16  1  0
 16 17  1  0
 16 18  2  0
  5 19  2  0
 19 20  1  0
 20 21  1  0
 21 22  1  0
 20 23  2  0
 23 24  1  0
 23  3  1  0
 11  7  1  0
 18 12  1  0
  1 25  1  0
  1 26  1  0
  1 27  1  0
  4 28  1  0
  6 29  1  0
  6 30  1  0
  8 31  1  0
  8 32  1  0
  9 33  1  0
  9 34  1  0
 10 35  1  0
 10 36  1  0
 11 37  1  0
 13 38  1  0
 14 39  1  0
 15 40  1  0
 18 41  1  0
 19 42  1  0
 22 43  1  0
 22 44  1  0
 22 45  1  0
 24 46  1  0
M  END
$$$$
