
     RDKit          3D

 46 49  0  0  0  0  0  0  0  0999 V2000
   -0.2349   -3.1017    2.7381 C   0  0  0  0  0  0  0  0  0  0  0  0
   -1.0404   -2.1072    1.9490 C   0  0  0  0  0  0  0  0  0  0  0  0
   -2.1978   -1.5690    2.5345 C   0  0  0  0  0  0  0  0  0  0  0  0
   -2.9893   -0.6435    1.8490 C   0  0  0  0  0  0  0  0  0  0  0  0
   -2.6548   -0.2609    0.5512 C   0  0  0  0  0  0  0  0  0  0  0  0
   -3.3805    0.7424   -0.1483 N   0  0  0  0  0  0  0  0  0  0  0  0
   -2.9437    2.0830   -0.0479 C   0  0  0  0  0  0  0  0  0  0  0  0
   -1.8483    2.4494    0.3520 O   0  0  0  0  0  0  0  0  0  0  0  0
   -4.0105    3.0162   -0.5713 C   0  0  0  0  0  0  0  0  0  0  0  0
   -5.3355    2.3238   -0.2929 C   0  0  0  0  0  0  0  0  0  0  0  0
   -5.0219    0.5840   -0.4885 S   0  0  0  0  0  6  0  0  0  0  0  0
   -5.1734    0.2471   -1.8856 O   0  0  0  0  0  0  0  0  0  0  0  0
   -5.7169   -0.1178    0.5661 O   0  0  0  0  0  0  0  0  0  0  0  0
   -1.4944   -0.7638   -0.0367 C   0  0  0  0  0  0  0  0  0  0  0  0
   -0.6796   -1.6681    0.6613 C   0  0  0  0  0  0  0  0  0  0  0  0
    0.8355   -2.2130   -0.1148 S   0  0  0  0  0  6  0  0  0  0  0  0
    0.4732   -3.3604   -0.9192 O   0  0  0  0  0  0  0  0  0  0  0  0
    1.8712   -2.2813    0.8931 O   0  0  0  0  0  0  0  0  0  0  0  0
    1.2069   -0.9627   -1.2051 N   0  0  0  0  0  0  0  0  0  0  0  0
    2.1561    0.0190   -0.7421 C   0  0  0  0  0  0  0  0  0  0  0  0
    1.7653    0.9944    0.1791 C   0  0  0  0  0  0  0  0  0  0  0  0
    2.7037    1.9036    0.6567 C   0  0  0  0  0  0  0  0  0  0  0  0
    4.0252    1.8291    0.2195 C   0  0  0  0  0  0  0  0  0  0  0  0
    4.4172    0.8451   -0.7058 C   0  0  0  0  0  0  0  0  0  0  0  0
    5.7387    0.7480   -1.1614 C   0  0  0  0  0  0  0  0  0  0  0  0
    6.0858   -0.2382   -2.0770 C   0  0  0  0  0  0  0  0  0  0  0  0
    5.0953   -1.0958   -2.5148 C   0  0  0  0  0  0  0  0  0  0  0  0
    3.8094   -1.0315   -2.1066 N   0  0  0  0  0  0  0  0  0  0  0  0
    3.4756   -0.0795   -1.2031 C   0  0  0  0  0  0  0  0  0  0  0  0
    0.0867   -3.9371    2.1090 H   0  0  0  0  0  0  0  0  0  0  0  0
   -0.8316   -3.5369    3.5474 H   0  0  0  0  0  0  0  0  0  0  0  0
    0.6346   -2.6152    3.1894 H   0  0  0  0  0  0  0  0  0  0  0  0
   -2.4937   -1.8671    3.5393 H   0  0  0  0  0  0  0  0  0  0  0  0
   -3.8663   -0.2374    2.3461 H   0  0  0  0  0  0  0  0  0  0  0  0
   -3.9549    3.9905   -0.0795 H   0  0  0  0  0  0  0  0  0  0  0  0
   -3.8510    3.1429   -1.6473 H   0  0  0  0  0  0  0  0  0  0  0  0
   -5.6483    2.4886    0.7431 H   0  0  0  0  0  0  0  0  0  0  0  0
   -6.1283    2.6382   -0.9749 H   0  0  0  0  0  0  0  0  0  0  0  0
   -1.2257   -0.4372   -1.0383 H   0  0  0  0  0  0  0  0  0  0  0  0
    1.5297   -1.4074   -2.0734 H   0  0  0  0  0  0  0  0  0  0  0  0
    0.7374    1.0623    0.5226 H   0  0  0  0  0  0  0  0  0  0  0  0
    2.4051    2.6668    1.3712 H   0  0  0  0  0  0  0  0  0  0  0  0
    4.7499    2.5434    0.6049 H   0  0  0  0  0  0  0  0  0  0  0  0
    6.5013    1.4349   -0.8035 H   0  0  0  0  0  0  0  0  0  0  0  0
    7.1032   -0.3352   -2.4384 H   0  0  0  0  0  0  0  0  0  0  0  0
    5.3147   -1.8850   -3.2288 H   0  0  0  0  0  0  0  0  0  0  0  0
  1  2  1  0
  2  3  2  0
  3  4  1  0
  4  5  2  0
  5  6  1  0
  6  7  1  0
  7  8  2  0
  7  9  1  0
  9 10  1  0
 10 11  1  0
 11 12  2  0
 11 13  2  0
  5 14  1  0
 14 15  2  0
 15 16  1  0
 16 17  2  0
 16 18  2  0
 16 19  1  0
 19 20  1  0
 20 21  2  0
 21 22  1  0
 22 23  2  0
 23 24  1  0
 24 25  2  0
 25 26  1  0
 26 27  2  0
 27 28  1  0
 28 29  2  0
 15  2  1  0
 29 20  1  0
 11  6  1  0
 29 24  1  0
  1 30  1  0
  1 31  1  0
  1 32  1  0
  3 33  1  0
  4 34  1  0
  9 35  1  0
  9 36  1  0
 10 37  1  0
 10 38  1  0
 14 39  1  0
 19 40  1  0
 21 41  1  0
 22 42  1  0
 23 43  1  0
 25 44  1  0
 26 45  1  0
 27 46  1  0
M  END
$$$$
