
     RDKit          3D

 22 23  0  0  0  0  0  0  0  0999 V2000
    4.8934   -0.0549    0.2934 C   0  0  0  0  0  0  0  0  0  0  0  0
    3.4537   -0.3440    0.0808 C   0  0  0  0  0  0  0  0  0  0  0  0
    2.9581   -1.5150   -0.2605 N   0  0  0  0  0  0  0  0  0  0  0  0
    1.5841   -1.4749   -0.3860 N   0  0  0  0  0  0  0  0  0  0  0  0
    1.0973   -0.2784   -0.1424 C   0  0  0  0  0  0  0  0  0  0  0  0
   -0.2504   -0.0263   -0.1997 N   0  0  0  0  0  0  0  0  0  0  0  0
   -0.8773    1.1903   -0.0411 C   0  0  0  0  0  0  0  0  0  0  0  0
   -0.2954    2.2589    0.1111 O   0  0  0  0  0  0  0  0  0  0  0  0
   -2.3214    1.1102   -0.1069 C   0  0  0  0  0  0  0  0  0  0  0  0
   -3.2131    2.4450   -0.7211 S   0  0  0  0  0  0  0  0  0  0  0  0
   -4.6819    1.6731   -0.5439 N   0  0  0  0  0  0  0  0  0  0  0  0
   -4.5690    0.4708   -0.0102 N   0  0  0  0  0  0  0  0  0  0  0  0
   -3.2454    0.1402    0.2646 C   0  0  0  0  0  0  0  0  0  0  0  0
   -3.0014   -1.1652    0.9303 C   0  0  0  0  0  0  0  0  0  0  0  0
    2.2693    0.8830    0.2764 S   0  0  0  0  0  0  0  0  0  0  0  0
    5.4939   -0.9542    0.1230 H   0  0  0  0  0  0  0  0  0  0  0  0
    5.2420    0.7185   -0.3983 H   0  0  0  0  0  0  0  0  0  0  0  0
    5.0760    0.2823    1.3186 H   0  0  0  0  0  0  0  0  0  0  0  0
   -0.7842   -0.8392   -0.4686 H   0  0  0  0  0  0  0  0  0  0  0  0
   -2.7221   -1.9228    0.1920 H   0  0  0  0  0  0  0  0  0  0  0  0
   -3.9026   -1.5116    1.4466 H   0  0  0  0  0  0  0  0  0  0  0  0
   -2.2036   -1.0856    1.6750 H   0  0  0  0  0  0  0  0  0  0  0  0
  1  2  1  0
  2  3  2  0
  3  4  1  0
  4  5  2  0
  5  6  1  0
  6  7  1  0
  7  8  2  0
  7  9  1  0
  9 10  1  0
 10 11  1  0
 11 12  2  0
 12 13  1  0
 13 14  1  0
  5 15  1  0
 15  2  1  0
 13  9  2  0
  1 16  1  0
  1 17  1  0
  1 18  1  0
  6 19  1  0
 14 20  1  0
 14 21  1  0
 14 22  1  0
M  END
$$$$
