
     RDKit          3D

 45 46  0  0  0  0  0  0  0  0999 V2000
   -5.8663   -1.1099   -1.7459 C   0  0  0  0  0  0  0  0  0  0  0  0
   -6.3672    0.2836   -1.4683 C   0  0  0  0  0  0  0  0  0  0  0  0
   -5.9907    0.6074   -0.0254 C   0  0  0  0  0  0  0  0  0  0  0  0
   -4.5677    0.5301    0.0859 N   0  0  0  0  0  0  0  0  0  0  0  0
   -4.1145    0.8238    1.4280 C   0  0  0  0  0  0  0  0  0  0  0  0
   -2.6235    0.7362    1.5258 C   0  0  0  0  0  0  0  0  0  0  0  0
   -1.9807    0.9983    2.7180 C   0  0  0  0  0  0  0  0  0  0  0  0
   -0.6061    0.9157    2.8026 C   0  0  0  0  0  0  0  0  0  0  0  0
    0.0203    1.1463    3.8694 O   0  0  0  0  0  0  0  0  0  0  0  0
    0.1234    0.5764    1.7144 N   0  0  0  0  0  0  0  0  0  0  0  0
    1.4276    0.4338    1.5480 N   0  0  0  0  0  0  0  0  0  0  0  0
    1.6761    0.0795    0.2618 C   0  0  0  0  0  0  0  0  0  0  0  0
    2.9591   -0.1614   -0.2873 N   0  0  0  0  0  0  0  0  0  0  0  0
    4.1635   -0.0462    0.5059 C   0  0  0  0  0  0  0  0  0  0  0  0
    5.3709   -0.3627   -0.2889 C   0  0  0  0  0  0  0  0  0  0  0  0
    6.5582    0.2992   -0.0892 C   0  0  0  0  0  0  0  0  0  0  0  0
    7.7035    0.0388   -0.7976 C   0  0  0  0  0  0  0  0  0  0  0  0
    7.6380   -0.9485   -1.7617 C   0  0  0  0  0  0  0  0  0  0  0  0
    6.4515   -1.6189   -1.9703 C   0  0  0  0  0  0  0  0  0  0  0  0
    5.3145   -1.3416   -1.2481 C   0  0  0  0  0  0  0  0  0  0  0  0
    0.4706    0.0178   -0.3262 N   0  0  0  0  0  0  0  0  0  0  0  0
   -0.5017    0.3208    0.5517 C   0  0  0  0  0  0  0  0  0  0  0  0
   -1.8513    0.4049    0.4807 N   0  0  0  0  0  0  0  0  0  0  0  0
    0.6879    0.0000    0.0000 Cl  0  0  0  0  0  0  0  0  0  0  0  0
   -6.6260   -1.8909   -1.5594 H   0  0  0  0  0  0  0  0  0  0  0  0
   -4.9815   -1.3744   -1.1298 H   0  0  0  0  0  0  0  0  0  0  0  0
   -5.5224   -1.1238   -2.8129 H   0  0  0  0  0  0  0  0  0  0  0  0
   -5.9080    1.0190   -2.1775 H   0  0  0  0  0  0  0  0  0  0  0  0
   -7.4742    0.3438   -1.5149 H   0  0  0  0  0  0  0  0  0  0  0  0
   -6.3219    1.6304    0.2557 H   0  0  0  0  0  0  0  0  0  0  0  0
   -6.4534   -0.1728    0.5962 H   0  0  0  0  0  0  0  0  0  0  0  0
   -4.1057    1.1307   -0.6315 H   0  0  0  0  0  0  0  0  0  0  0  0
   -4.6159    0.1089    2.1120 H   0  0  0  0  0  0  0  0  0  0  0  0
   -4.4875    1.8365    1.6796 H   0  0  0  0  0  0  0  0  0  0  0  0
   -2.5759    1.2728    3.5970 H   0  0  0  0  0  0  0  0  0  0  0  0
    3.0335   -0.4265   -1.2908 H   0  0  0  0  0  0  0  0  0  0  0  0
    4.1352   -0.7226    1.3860 H   0  0  0  0  0  0  0  0  0  0  0  0
    4.2621    0.9896    0.9436 H   0  0  0  0  0  0  0  0  0  0  0  0
    6.6223    1.0766    0.6652 H   0  0  0  0  0  0  0  0  0  0  0  0
    8.6387    0.5763   -0.6240 H   0  0  0  0  0  0  0  0  0  0  0  0
    8.4959   -1.2175   -2.3666 H   0  0  0  0  0  0  0  0  0  0  0  0
    6.3764   -2.4044   -2.7284 H   0  0  0  0  0  0  0  0  0  0  0  0
    4.4048   -1.9033   -1.4524 H   0  0  0  0  0  0  0  0  0  0  0  0
   -2.3039    0.2015   -0.4307 H   0  0  0  0  0  0  0  0  0  0  0  0
   -0.6879    0.0000    0.0000 H   0  0  0  0  0  0  0  0  0  0  0  0
  1  2  1  0
  2  3  1  0
  3  4  1  0
  4  5  1  0
  5  6  1  0
  6  7  2  0
  7  8  1  0
  8  9  2  0
  8 10  1  0
 10 11  1  0
 11 12  2  0
 12 13  1  0
 13 14  1  0
 14 15  1  0
 15 16  2  0
 16 17  1  0
 17 18  2  0
 18 19  1  0
 19 20  2  0
 12 21  1  0
 21 22  2  0
 22 23  1  0
 23  6  1  0
 22 10  1  0
 20 15  1  0
  1 25  1  0
  1 26  1  0
  1 27  1  0
  2 28  1  0
  2 29  1  0
  3 30  1  0
  3 31  1  0
  4 32  1  0
  5 33  1  0
  5 34  1  0
  7 35  1  0
 13 36  1  0
 14 37  1  0
 14 38  1  0
 16 39  1  0
 17 40  1  0
 18 41  1  0
 19 42  1  0
 20 43  1  0
 23 44  1  0
 24 45  1  0
M  END
$$$$
