
     RDKit          3D

 54 55  0  0  0  0  0  0  0  0999 V2000
    0.6856    0.0000    0.0000 Cl  0  0  0  0  0  0  0  0  0  0  0  0
    1.4404    0.6462    0.8708 O   0  0  0  0  0  0  0  0  0  0  0  0
    1.6245    0.5802   -0.3632 C   0  0  0  0  0  0  0  0  0  0  0  0
    2.9913    0.2595   -0.9202 C   0  0  0  0  0  0  0  0  0  0  0  0
    3.8359    0.0857    0.1970 O   0  0  0  0  0  0  0  0  0  0  0  0
    5.1859   -0.2227    0.0807 C   0  0  0  0  0  0  0  0  0  0  0  0
    5.7099   -0.3618   -1.1755 C   0  0  0  0  0  0  0  0  0  0  0  0
    7.0291   -0.6647   -1.3903 C   0  0  0  0  0  0  0  0  0  0  0  0
    7.8438   -0.8320   -0.2786 C   0  0  0  0  0  0  0  0  0  0  0  0
    7.3148   -0.6917    0.9870 C   0  0  0  0  0  0  0  0  0  0  0  0
    5.9899   -0.3879    1.1761 C   0  0  0  0  0  0  0  0  0  0  0  0
    5.3027   -0.2065    2.7850 Cl  0  0  0  0  0  0  0  0  0  0  0  0
    0.5232    0.8129   -1.2188 N   0  0  0  0  0  0  0  0  0  0  0  0
   -0.8121    1.1037   -0.8821 C   0  0  0  0  0  0  0  0  0  0  0  0
   -1.6653    0.1259   -0.1838 C   0  0  0  0  0  0  0  0  0  0  0  0
   -2.9961    0.7052   -0.0020 N   0  0  0  0  0  0  0  0  0  0  0  0
   -3.6935    1.0287   -1.1926 C   0  0  0  0  0  0  0  0  0  0  0  0
   -5.1890    0.9397   -0.8397 C   0  0  0  0  0  0  0  0  0  0  0  0
   -5.3515    1.1856    0.5128 O   0  0  0  0  0  0  0  0  0  0  0  0
   -4.5304    2.1952    1.0033 C   0  0  0  0  0  0  0  0  0  0  0  0
   -3.0427    1.8054    0.8862 C   0  0  0  0  0  0  0  0  0  0  0  0
   -1.8055   -1.1670   -0.9789 C   0  0  0  0  0  0  0  0  0  0  0  0
   -1.5935   -2.4024   -0.1311 C   0  0  0  0  0  0  0  0  0  0  0  0
   -2.4447   -2.4157    1.1108 C   0  0  0  0  0  0  0  0  0  0  0  0
   -2.5108   -1.0317    1.7526 C   0  0  0  0  0  0  0  0  0  0  0  0
   -1.2629   -0.2803    1.2045 C   0  0  0  0  0  0  0  0  0  0  0  0
   -0.6856    0.0000    0.0000 H   0  0  0  0  0  0  0  0  0  0  0  0
    2.9529   -0.6605   -1.5329 H   0  0  0  0  0  0  0  0  0  0  0  0
    3.3832    1.0958   -1.5170 H   0  0  0  0  0  0  0  0  0  0  0  0
    5.0630   -0.2285   -2.0398 H   0  0  0  0  0  0  0  0  0  0  0  0
    7.4479   -0.7758   -2.4027 H   0  0  0  0  0  0  0  0  0  0  0  0
    8.8886   -1.0714   -0.4204 H   0  0  0  0  0  0  0  0  0  0  0  0
    7.9387   -0.8197    1.8510 H   0  0  0  0  0  0  0  0  0  0  0  0
    0.7974    0.7456   -2.2751 H   0  0  0  0  0  0  0  0  0  0  0  0
   -0.8981    2.0832   -0.3055 H   0  0  0  0  0  0  0  0  0  0  0  0
   -1.3419    1.3901   -1.8523 H   0  0  0  0  0  0  0  0  0  0  0  0
   -3.5744    2.1218   -1.4769 H   0  0  0  0  0  0  0  0  0  0  0  0
   -3.4571    0.4794   -2.0970 H   0  0  0  0  0  0  0  0  0  0  0  0
   -5.7897    1.5916   -1.4845 H   0  0  0  0  0  0  0  0  0  0  0  0
   -5.5132   -0.1287   -1.0108 H   0  0  0  0  0  0  0  0  0  0  0  0
   -4.7443    2.2976    2.0782 H   0  0  0  0  0  0  0  0  0  0  0  0
   -4.7553    3.1392    0.5017 H   0  0  0  0  0  0  0  0  0  0  0  0
   -2.5705    2.7559    0.4988 H   0  0  0  0  0  0  0  0  0  0  0  0
   -2.6279    1.6729    1.8855 H   0  0  0  0  0  0  0  0  0  0  0  0
   -1.0486   -1.2051   -1.7878 H   0  0  0  0  0  0  0  0  0  0  0  0
   -2.8157   -1.2922   -1.4207 H   0  0  0  0  0  0  0  0  0  0  0  0
   -0.5357   -2.6622    0.0307 H   0  0  0  0  0  0  0  0  0  0  0  0
   -1.9863   -3.2600   -0.7586 H   0  0  0  0  0  0  0  0  0  0  0  0
   -3.4808   -2.7268    0.8629 H   0  0  0  0  0  0  0  0  0  0  0  0
   -1.9674   -3.1388    1.8174 H   0  0  0  0  0  0  0  0  0  0  0  0
   -2.3437   -1.1401    2.8325 H   0  0  0  0  0  0  0  0  0  0  0  0
   -3.4389   -0.5402    1.4559 H   0  0  0  0  0  0  0  0  0  0  0  0
   -0.9966    0.5278    1.8818 H   0  0  0  0  0  0  0  0  0  0  0  0
   -0.4789   -1.0606    1.2559 H   0  0  0  0  0  0  0  0  0  0  0  0
  2  3  2  0
  3  4  1  0
  4  5  1  0
  5  6  1  0
  6  7  2  0
  7  8  1  0
  8  9  2  0
  9 10  1  0
 10 11  2  0
 11 12  1  0
  3 13  1  0
 13 14  1  0
 14 15  1  0
 15 16  1  0
 16 17  1  0
 17 18  1  0
 18 19  1  0
 19 20  1  0
 20 21  1  0
 15 22  1  0
 22 23  1  0
 23 24  1  0
 24 25  1  0
 25 26  1  0
 11  6  1  0
 26 15  1  0
 21 16  1  0
  1 27  1  0
  4 28  1  0
  4 29  1  0
  7 30  1  0
  8 31  1  0
  9 32  1  0
 10 33  1  0
 13 34  1  0
 14 35  1  0
 14 36  1  0
 17 37  1  0
 17 38  1  0
 18 39  1  0
 18 40  1  0
 20 41  1  0
 20 42  1  0
 21 43  1  0
 21 44  1  0
 22 45  1  0
 22 46  1  0
 23 47  1  0
 23 48  1  0
 24 49  1  0
 24 50  1  0
 25 51  1  0
 25 52  1  0
 26 53  1  0
 26 54  1  0
M  END
$$$$
