
     RDKit          3D

 40 42  0  0  0  0  0  0  0  0999 V2000
   -2.3655   -3.4767   -0.5446 C   0  0  0  0  0  0  0  0  0  0  0  0
   -2.5651   -2.0147   -0.5883 C   0  0  0  0  0  0  0  0  0  0  0  0
   -3.3976   -1.1922   -1.3156 C   0  0  0  0  0  0  0  0  0  0  0  0
   -3.1140    0.1307   -0.9013 C   0  0  0  0  0  0  0  0  0  0  0  0
   -2.1275    0.0362    0.0568 C   0  0  0  0  0  0  0  0  0  0  0  0
   -1.3874    1.0405    0.8706 C   0  0  0  0  0  0  0  0  0  0  0  0
   -0.1697    1.4592    0.1634 N   0  0  0  0  0  0  0  0  0  0  0  0
    1.0639    0.8376    0.4171 C   0  0  0  0  0  0  0  0  0  0  0  0
    2.1492    1.3856    0.2363 O   0  0  0  0  0  0  0  0  0  0  0  0
    0.9473   -0.4574    0.8982 N   0  0  0  0  0  0  0  0  0  0  0  0
    1.9664   -1.2928    1.3985 C   0  0  0  0  0  0  0  0  0  0  0  0
    3.2492   -0.8505    1.7251 C   0  0  0  0  0  0  0  0  0  0  0  0
    4.1990   -1.7444    2.2310 C   0  0  0  0  0  0  0  0  0  0  0  0
    3.8715   -3.0852    2.4191 C   0  0  0  0  0  0  0  0  0  0  0  0
    2.5913   -3.5341    2.1066 C   0  0  0  0  0  0  0  0  0  0  0  0
    1.6423   -2.6407    1.6027 C   0  0  0  0  0  0  0  0  0  0  0  0
   -0.2997    2.6091   -0.6840 C   0  0  0  0  0  0  0  0  0  0  0  0
    0.7195    3.0377   -1.5335 C   0  0  0  0  0  0  0  0  0  0  0  0
    0.5249    4.1514   -2.3541 C   0  0  0  0  0  0  0  0  0  0  0  0
   -0.6882    4.8175   -2.3250 C   0  0  0  0  0  0  0  0  0  0  0  0
   -1.6621    4.3314   -1.4783 C   0  0  0  0  0  0  0  0  0  0  0  0
   -1.4971    3.2524   -0.6799 N   0  0  0  0  0  0  0  0  0  0  0  0
   -1.7906   -1.2739    0.2526 O   0  0  0  0  0  0  0  0  0  0  0  0
   -2.7609   -3.8858    0.3901 H   0  0  0  0  0  0  0  0  0  0  0  0
   -2.8779   -3.9679   -1.3774 H   0  0  0  0  0  0  0  0  0  0  0  0
   -1.3012   -3.7230   -0.6084 H   0  0  0  0  0  0  0  0  0  0  0  0
   -4.1166   -1.5078   -2.0589 H   0  0  0  0  0  0  0  0  0  0  0  0
   -3.5581    1.0495   -1.2608 H   0  0  0  0  0  0  0  0  0  0  0  0
   -1.1115    0.6013    1.8374 H   0  0  0  0  0  0  0  0  0  0  0  0
   -2.0267    1.8925    1.1240 H   0  0  0  0  0  0  0  0  0  0  0  0
    0.0800   -0.9279    0.6657 H   0  0  0  0  0  0  0  0  0  0  0  0
    3.5399    0.1886    1.6053 H   0  0  0  0  0  0  0  0  0  0  0  0
    5.1948   -1.3870    2.4793 H   0  0  0  0  0  0  0  0  0  0  0  0
    4.6111   -3.7761    2.8135 H   0  0  0  0  0  0  0  0  0  0  0  0
    2.3292   -4.5780    2.2566 H   0  0  0  0  0  0  0  0  0  0  0  0
    0.6478   -3.0122    1.3693 H   0  0  0  0  0  0  0  0  0  0  0  0
    1.6721    2.5256   -1.6024 H   0  0  0  0  0  0  0  0  0  0  0  0
    1.3237    4.4872   -3.0098 H   0  0  0  0  0  0  0  0  0  0  0  0
   -0.8696    5.6863   -2.9470 H   0  0  0  0  0  0  0  0  0  0  0  0
   -2.6362    4.8079   -1.4156 H   0  0  0  0  0  0  0  0  0  0  0  0
  1  2  1  0
  2  3  2  0
  3  4  1  0
  4  5  2  0
  5  6  1  0
  6  7  1  0
  7  8  1  0
  8  9  2  0
  8 10  1  0
 10 11  1  0
 11 12  2  0
 12 13  1  0
 13 14  2  0
 14 15  1  0
 15 16  2  0
  7 17  1  0
 17 18  2  0
 18 19  1  0
 19 20  2  0
 20 21  1  0
 21 22  2  0
  5 23  1  0
 23  2  1  0
 16 11  1  0
 22 17  1  0
  1 24  1  0
  1 25  1  0
  1 26  1  0
  3 27  1  0
  4 28  1  0
  6 29  1  0
  6 30  1  0
 10 31  1  0
 12 32  1  0
 13 33  1  0
 14 34  1  0
 15 35  1  0
 16 36  1  0
 18 37  1  0
 19 38  1  0
 20 39  1  0
 21 40  1  0
M  END
$$$$
