
     RDKit          3D

 39 41  0  0  0  0  0  0  0  0999 V2000
    6.4430    0.9666   -1.6791 C   0  0  0  0  0  0  0  0  0  0  0  0
    5.1671    0.9690   -0.8894 C   0  0  0  0  0  0  0  0  0  0  0  0
    5.0563    1.7068    0.2936 C   0  0  0  0  0  0  0  0  0  0  0  0
    3.8706    1.6879    1.0272 C   0  0  0  0  0  0  0  0  0  0  0  0
    2.7869    0.9248    0.5880 C   0  0  0  0  0  0  0  0  0  0  0  0
    2.8770    0.1679   -0.5886 C   0  0  0  0  0  0  0  0  0  0  0  0
    1.7411   -0.6315   -1.0376 C   0  0  0  0  0  0  0  0  0  0  0  0
    1.7645   -1.4303   -2.1186 N   0  0  0  0  0  0  0  0  0  0  0  0
    0.4864   -1.9791   -2.1599 O   0  0  0  0  0  0  0  0  0  0  0  0
   -0.1891   -1.4638   -1.0961 C   0  0  0  0  0  0  0  0  0  0  0  0
   -1.6072   -1.8949   -0.9206 C   0  0  0  0  0  0  0  0  0  0  0  0
   -1.6738   -3.2829   -0.2885 C   0  0  0  0  0  0  0  0  0  0  0  0
   -2.2825   -0.9106   -0.0808 N   0  0  0  0  0  0  0  0  0  0  0  0
   -3.6496   -0.7721   -0.0915 C   0  0  0  0  0  0  0  0  0  0  0  0
   -4.3841   -1.4597   -0.7913 O   0  0  0  0  0  0  0  0  0  0  0  0
   -4.2222    0.2922    0.7744 C   0  0  0  0  0  0  0  0  0  0  0  0
   -5.4642    0.8253    0.4271 C   0  0  0  0  0  0  0  0  0  0  0  0
   -5.9974    1.8122    1.2341 C   0  0  0  0  0  0  0  0  0  0  0  0
   -5.3860    2.2824    2.3423 N   0  0  0  0  0  0  0  0  0  0  0  0
   -4.1954    1.7355    2.6663 C   0  0  0  0  0  0  0  0  0  0  0  0
   -3.5751    0.7455    1.9244 C   0  0  0  0  0  0  0  0  0  0  0  0
    0.5291   -0.6297   -0.3737 N   0  0  0  0  0  0  0  0  0  0  0  0
    4.0767    0.1965   -1.3181 C   0  0  0  0  0  0  0  0  0  0  0  0
    6.9572    0.0081   -1.5581 H   0  0  0  0  0  0  0  0  0  0  0  0
    7.1180    1.7636   -1.3502 H   0  0  0  0  0  0  0  0  0  0  0  0
    6.2336    1.1309   -2.7415 H   0  0  0  0  0  0  0  0  0  0  0  0
    5.8931    2.3031    0.6515 H   0  0  0  0  0  0  0  0  0  0  0  0
    3.7906    2.2672    1.9437 H   0  0  0  0  0  0  0  0  0  0  0  0
    1.8712    0.9229    1.1753 H   0  0  0  0  0  0  0  0  0  0  0  0
   -2.1055   -1.9140   -1.8972 H   0  0  0  0  0  0  0  0  0  0  0  0
   -1.1548   -4.0240   -0.9066 H   0  0  0  0  0  0  0  0  0  0  0  0
   -2.7112   -3.6125   -0.1679 H   0  0  0  0  0  0  0  0  0  0  0  0
   -1.2085   -3.2922    0.7043 H   0  0  0  0  0  0  0  0  0  0  0  0
   -1.6924   -0.2308    0.3841 H   0  0  0  0  0  0  0  0  0  0  0  0
   -6.0010    0.4816   -0.4510 H   0  0  0  0  0  0  0  0  0  0  0  0
   -6.9584    2.2646    1.0063 H   0  0  0  0  0  0  0  0  0  0  0  0
   -3.7415    2.1245    3.5739 H   0  0  0  0  0  0  0  0  0  0  0  0
   -2.6321    0.3353    2.2638 H   0  0  0  0  0  0  0  0  0  0  0  0
    4.1696   -0.3865   -2.2336 H   0  0  0  0  0  0  0  0  0  0  0  0
  1  2  1  0
  2  3  2  0
  3  4  1  0
  4  5  2  0
  5  6  1  0
  6  7  1  0
  7  8  2  0
  8  9  1  0
  9 10  1  0
 10 11  1  0
 11 12  1  0
 11 13  1  0
 13 14  1  0
 14 15  2  0
 14 16  1  0
 16 17  2  0
 17 18  1  0
 18 19  2  0
 19 20  1  0
 20 21  2  0
 10 22  2  0
  6 23  2  0
 23  2  1  0
 22  7  1  0
 21 16  1  0
  1 24  1  0
  1 25  1  0
  1 26  1  0
  3 27  1  0
  4 28  1  0
  5 29  1  0
 11 30  1  0
 12 31  1  0
 12 32  1  0
 12 33  1  0
 13 34  1  0
 17 35  1  0
 18 36  1  0
 20 37  1  0
 21 38  1  0
 23 39  1  0
M  END
$$$$
