
     RDKit          3D

 46 49  0  0  0  0  0  0  0  0999 V2000
    0.7829   -3.2051   -0.0281 C   0  0  0  0  0  0  0  0  0  0  0  0
    0.4832   -1.8086   -0.5850 C   0  0  0  0  0  0  0  0  0  0  0  0
   -0.8550   -1.2994   -0.0200 C   0  0  0  0  0  0  0  0  0  0  0  0
   -1.3657   -0.0871   -0.6724 N   0  0  0  0  0  0  0  0  0  0  0  0
   -2.0719    0.9395   -0.0125 C   0  0  0  0  0  0  0  0  0  0  0  0
   -2.3706    1.9696   -0.6191 O   0  0  0  0  0  0  0  0  0  0  0  0
   -2.4610    0.7489    1.3752 C   0  0  0  0  0  0  0  0  0  0  0  0
   -3.0102   -0.3158    2.0714 C   0  0  0  0  0  0  0  0  0  0  0  0
   -3.2144    0.1206    3.4034 C   0  0  0  0  0  0  0  0  0  0  0  0
   -2.8031    1.4302    3.4408 C   0  0  0  0  0  0  0  0  0  0  0  0
   -2.3570    1.8227    2.2222 O   0  0  0  0  0  0  0  0  0  0  0  0
   -1.2820   -0.0240   -2.1373 C   0  0  0  0  0  0  0  0  0  0  0  0
    0.0708   -0.4734   -2.7127 C   0  0  0  0  0  0  0  0  0  0  0  0
   -0.0172   -0.5590   -4.2404 C   0  0  0  0  0  0  0  0  0  0  0  0
    1.2242    0.4641   -2.3136 C   0  0  0  0  0  0  0  0  0  0  0  0
    1.4907    0.4569   -0.8756 N   0  0  0  0  0  0  0  0  0  0  0  0
    2.0643    1.6125   -0.3189 C   0  0  0  0  0  0  0  0  0  0  0  0
    2.5436    2.4824   -1.0484 O   0  0  0  0  0  0  0  0  0  0  0  0
    2.0390    1.7670    1.1261 C   0  0  0  0  0  0  0  0  0  0  0  0
    2.7605    2.6159    1.9469 C   0  0  0  0  0  0  0  0  0  0  0  0
    2.2881    2.4162    3.2659 C   0  0  0  0  0  0  0  0  0  0  0  0
    1.2924    1.4743    3.1743 C   0  0  0  0  0  0  0  0  0  0  0  0
    1.1314    1.0752    1.8876 O   0  0  0  0  0  0  0  0  0  0  0  0
    1.6526   -0.8655   -0.2660 C   0  0  0  0  0  0  0  0  0  0  0  0
    0.3550   -1.8283   -2.0956 C   0  0  0  0  0  0  0  0  0  0  0  0
    0.4623   -2.8577   -2.7585 O   0  0  0  0  0  0  0  0  0  0  0  0
    1.7171   -3.6057   -0.4382 H   0  0  0  0  0  0  0  0  0  0  0  0
   -0.0129   -3.9146   -0.2823 H   0  0  0  0  0  0  0  0  0  0  0  0
    0.8770   -3.1827    1.0632 H   0  0  0  0  0  0  0  0  0  0  0  0
   -1.6350   -2.0601   -0.1523 H   0  0  0  0  0  0  0  0  0  0  0  0
   -0.7334   -1.1284    1.0532 H   0  0  0  0  0  0  0  0  0  0  0  0
   -3.2560   -1.2847    1.6608 H   0  0  0  0  0  0  0  0  0  0  0  0
   -3.6308   -0.4410    4.2278 H   0  0  0  0  0  0  0  0  0  0  0  0
   -2.7745    2.1872    4.2123 H   0  0  0  0  0  0  0  0  0  0  0  0
   -2.0828   -0.6813   -2.5023 H   0  0  0  0  0  0  0  0  0  0  0  0
   -1.5180    0.9825   -2.4996 H   0  0  0  0  0  0  0  0  0  0  0  0
   -0.2285    0.4224   -4.6791 H   0  0  0  0  0  0  0  0  0  0  0  0
   -0.8104   -1.2461   -4.5568 H   0  0  0  0  0  0  0  0  0  0  0  0
    0.9206   -0.9263   -4.6727 H   0  0  0  0  0  0  0  0  0  0  0  0
    1.0004    1.4871   -2.6400 H   0  0  0  0  0  0  0  0  0  0  0  0
    2.1584    0.1638   -2.8062 H   0  0  0  0  0  0  0  0  0  0  0  0
    3.5244    3.3057    1.6138 H   0  0  0  0  0  0  0  0  0  0  0  0
    2.6168    2.9141    4.1673 H   0  0  0  0  0  0  0  0  0  0  0  0
    0.6286    1.0134    3.8925 H   0  0  0  0  0  0  0  0  0  0  0  0
    2.5866   -1.2693   -0.6819 H   0  0  0  0  0  0  0  0  0  0  0  0
    1.8193   -0.8083    0.8108 H   0  0  0  0  0  0  0  0  0  0  0  0
  1  2  1  0
  2  3  1  0
  3  4  1  0
  4  5  1  0
  5  6  2  0
  5  7  1  0
  7  8  2  0
  8  9  1  0
  9 10  2  0
 10 11  1  0
  4 12  1  0
 12 13  1  0
 13 14  1  0
 13 15  1  0
 15 16  1  0
 16 17  1  0
 17 18  2  0
 17 19  1  0
 19 20  2  0
 20 21  1  0
 21 22  2  0
 22 23  1  0
 16 24  1  0
 13 25  1  0
 25 26  2  0
 24  2  1  0
 25  2  1  0
 11  7  1  0
 23 19  1  0
  1 27  1  0
  1 28  1  0
  1 29  1  0
  3 30  1  0
  3 31  1  0
  8 32  1  0
  9 33  1  0
 10 34  1  0
 12 35  1  0
 12 36  1  0
 14 37  1  0
 14 38  1  0
 14 39  1  0
 15 40  1  0
 15 41  1  0
 20 42  1  0
 21 43  1  0
 22 44  1  0
 24 45  1  0
 24 46  1  0
M  END
$$$$
