
     RDKit          3D

 32 33  0  0  0  0  0  0  0  0999 V2000
    0.9914    1.6674   -0.2373 O   0  0  0  0  0  0  0  0  0  0  0  0
    0.7436    0.4881   -0.0150 C   0  0  0  0  0  0  0  0  0  0  0  0
   -0.6794   -0.0207    0.1048 C   0  0  0  0  0  0  0  0  0  0  0  0
   -1.6725    1.1339    0.2004 C   0  0  0  0  0  0  0  0  0  0  0  0
   -3.0590    0.6584    0.2461 N   0  0  0  0  0  0  0  0  0  0  0  0
   -3.8238    0.6816   -0.9023 C   0  0  0  0  0  0  0  0  0  0  0  0
   -5.0859    0.2484   -0.9172 C   0  0  0  0  0  0  0  0  0  0  0  0
   -5.6745   -0.2699    0.3277 C   0  0  0  0  0  0  0  0  0  0  0  0
   -6.8216   -0.6986    0.3533 O   0  0  0  0  0  0  0  0  0  0  0  0
   -4.8625   -0.2466    1.4233 N   0  0  0  0  0  0  0  0  0  0  0  0
   -3.5575    0.1697    1.4500 C   0  0  0  0  0  0  0  0  0  0  0  0
   -2.8971    0.0848    2.4829 O   0  0  0  0  0  0  0  0  0  0  0  0
    1.6654   -0.5379    0.1198 N   0  0  0  0  0  0  0  0  0  0  0  0
    3.0706   -0.4466    0.0453 C   0  0  0  0  0  0  0  0  0  0  0  0
    3.7660    0.7394   -0.2020 C   0  0  0  0  0  0  0  0  0  0  0  0
    5.1649    0.7440   -0.2618 C   0  0  0  0  0  0  0  0  0  0  0  0
    5.8734   -0.4388   -0.0744 C   0  0  0  0  0  0  0  0  0  0  0  0
    7.5914   -0.4319   -0.1489 Cl  0  0  0  0  0  0  0  0  0  0  0  0
    5.1951   -1.6283    0.1730 C   0  0  0  0  0  0  0  0  0  0  0  0
    3.7978   -1.6307    0.2324 C   0  0  0  0  0  0  0  0  0  0  0  0
   -0.8975   -0.6350   -0.7769 H   0  0  0  0  0  0  0  0  0  0  0  0
   -0.7569   -0.6632    0.9893 H   0  0  0  0  0  0  0  0  0  0  0  0
   -1.5567    1.8265   -0.6427 H   0  0  0  0  0  0  0  0  0  0  0  0
   -1.4770    1.7144    1.1111 H   0  0  0  0  0  0  0  0  0  0  0  0
   -3.3592    1.0706   -1.8042 H   0  0  0  0  0  0  0  0  0  0  0  0
   -5.7075    0.2556   -1.8022 H   0  0  0  0  0  0  0  0  0  0  0  0
   -5.2399   -0.6088    2.2845 H   0  0  0  0  0  0  0  0  0  0  0  0
    1.2929   -1.4598    0.3135 H   0  0  0  0  0  0  0  0  0  0  0  0
    3.2525    1.6838   -0.3531 H   0  0  0  0  0  0  0  0  0  0  0  0
    5.6886    1.6768   -0.4546 H   0  0  0  0  0  0  0  0  0  0  0  0
    5.7441   -2.5543    0.3209 H   0  0  0  0  0  0  0  0  0  0  0  0
    3.2907   -2.5723    0.4281 H   0  0  0  0  0  0  0  0  0  0  0  0
  1  2  2  0
  2  3  1  0
  3  4  1  0
  4  5  1  0
  5  6  1  0
  6  7  2  0
  7  8  1  0
  8  9  2  0
  8 10  1  0
 10 11  1  0
 11 12  2  0
  2 13  1  0
 13 14  1  0
 14 15  2  0
 15 16  1  0
 16 17  2  0
 17 18  1  0
 17 19  1  0
 19 20  2  0
 11  5  1  0
 20 14  1  0
  3 21  1  0
  3 22  1  0
  4 23  1  0
  4 24  1  0
  6 25  1  0
  7 26  1  0
 10 27  1  0
 13 28  1  0
 15 29  1  0
 16 30  1  0
 19 31  1  0
 20 32  1  0
M  END
$$$$
