
     RDKit          3D

 62 65  0  0  0  0  0  0  0  0999 V2000
    8.1166   -1.0486    2.7215 C   0  0  0  0  0  0  0  0  0  0  0  0
    8.1368   -0.4015    1.4575 O   0  0  0  0  0  0  0  0  0  0  0  0
    6.9711   -0.3758    0.7318 C   0  0  0  0  0  0  0  0  0  0  0  0
    5.7691   -0.9652    1.1420 C   0  0  0  0  0  0  0  0  0  0  0  0
    4.6140   -0.8892    0.3465 C   0  0  0  0  0  0  0  0  0  0  0  0
    4.6764   -0.2356   -0.8872 C   0  0  0  0  0  0  0  0  0  0  0  0
    5.8815    0.3577   -1.3024 C   0  0  0  0  0  0  0  0  0  0  0  0
    7.0265    0.2971   -0.5018 C   0  0  0  0  0  0  0  0  0  0  0  0
    8.2378    0.8501   -0.8352 O   0  0  0  0  0  0  0  0  0  0  0  0
    8.3155    1.5877   -2.0461 C   0  0  0  0  0  0  0  0  0  0  0  0
    3.4710   -0.1967   -1.7822 C   0  0  0  0  0  0  0  0  0  0  0  0
    2.2949    0.5383   -1.1747 C   0  0  0  0  0  0  0  0  0  0  0  0
    1.8831    1.5801   -1.6960 O   0  0  0  0  0  0  0  0  0  0  0  0
    1.6515   -0.0584   -0.0886 N   0  0  0  0  0  0  0  0  0  0  0  0
    0.2941    0.4272    0.1970 C   0  0  0  0  0  0  0  0  0  0  0  0
   -0.7728   -0.3106   -0.6299 C   0  0  0  0  0  0  0  0  0  0  0  0
   -0.5075   -1.3427   -1.2520 O   0  0  0  0  0  0  0  0  0  0  0  0
   -2.0584    0.2227   -0.6190 N   0  0  0  0  0  0  0  0  0  0  0  0
   -2.5718    1.1371    0.4092 C   0  0  0  0  0  0  0  0  0  0  0  0
   -3.3788    0.3578    1.4708 C   0  0  0  0  0  0  0  0  0  0  0  0
   -4.4329   -0.4685    0.8401 N   0  0  0  0  0  0  0  0  0  0  0  0
   -5.7483   -0.0047    0.9353 C   0  0  0  0  0  0  0  0  0  0  0  0
   -6.2665    0.2081    2.2320 C   0  0  0  0  0  0  0  0  0  0  0  0
   -7.5703    0.6543    2.4546 C   0  0  0  0  0  0  0  0  0  0  0  0
   -8.4022    0.9043    1.3753 C   0  0  0  0  0  0  0  0  0  0  0  0
   -7.9312    0.6995    0.0794 C   0  0  0  0  0  0  0  0  0  0  0  0
   -6.6228    0.2372   -0.1527 C   0  0  0  0  0  0  0  0  0  0  0  0
   -6.1248    0.0766   -1.4228 O   0  0  0  0  0  0  0  0  0  0  0  0
   -7.0648   -0.0846   -2.4786 C   0  0  0  0  0  0  0  0  0  0  0  0
   -3.9739   -1.3103   -0.2885 C   0  0  0  0  0  0  0  0  0  0  0  0
   -3.1299   -0.5114   -1.3030 C   0  0  0  0  0  0  0  0  0  0  0  0
    2.1198   -1.1320    0.6529 C   0  0  0  0  0  0  0  0  0  0  0  0
    3.3866   -1.5335    0.8325 C   0  0  0  0  0  0  0  0  0  0  0  0
    9.1172   -0.9642    3.1572 H   0  0  0  0  0  0  0  0  0  0  0  0
    7.4150   -0.5586    3.4046 H   0  0  0  0  0  0  0  0  0  0  0  0
    7.8900   -2.1149    2.6162 H   0  0  0  0  0  0  0  0  0  0  0  0
    5.7069   -1.4841    2.0929 H   0  0  0  0  0  0  0  0  0  0  0  0
    5.9016    0.8603   -2.2646 H   0  0  0  0  0  0  0  0  0  0  0  0
    8.1296    0.9444   -2.9121 H   0  0  0  0  0  0  0  0  0  0  0  0
    7.6330    2.4439   -2.0334 H   0  0  0  0  0  0  0  0  0  0  0  0
    9.3345    1.9769   -2.1358 H   0  0  0  0  0  0  0  0  0  0  0  0
    3.1652   -1.2138   -2.0567 H   0  0  0  0  0  0  0  0  0  0  0  0
    3.7158    0.3011   -2.7291 H   0  0  0  0  0  0  0  0  0  0  0  0
    0.2378    1.4981   -0.0244 H   0  0  0  0  0  0  0  0  0  0  0  0
    0.0803    0.2848    1.2629 H   0  0  0  0  0  0  0  0  0  0  0  0
   -1.7650    1.6892    0.8948 H   0  0  0  0  0  0  0  0  0  0  0  0
   -3.2168    1.8665   -0.0949 H   0  0  0  0  0  0  0  0  0  0  0  0
   -2.7036   -0.3164    2.0123 H   0  0  0  0  0  0  0  0  0  0  0  0
   -3.7742    1.0682    2.2054 H   0  0  0  0  0  0  0  0  0  0  0  0
   -5.6462   -0.0113    3.0986 H   0  0  0  0  0  0  0  0  0  0  0  0
   -7.9296    0.7980    3.4698 H   0  0  0  0  0  0  0  0  0  0  0  0
   -9.4164    1.2593    1.5374 H   0  0  0  0  0  0  0  0  0  0  0  0
   -8.6060    0.9278   -0.7387 H   0  0  0  0  0  0  0  0  0  0  0  0
   -6.5165   -0.4239   -3.3627 H   0  0  0  0  0  0  0  0  0  0  0  0
   -7.8142   -0.8477   -2.2400 H   0  0  0  0  0  0  0  0  0  0  0  0
   -7.5358    0.8716   -2.7290 H   0  0  0  0  0  0  0  0  0  0  0  0
   -4.7970   -1.8411   -0.7787 H   0  0  0  0  0  0  0  0  0  0  0  0
   -3.3373   -2.0953    0.1410 H   0  0  0  0  0  0  0  0  0  0  0  0
   -3.7324    0.2355   -1.8281 H   0  0  0  0  0  0  0  0  0  0  0  0
   -2.7217   -1.1879   -2.0606 H   0  0  0  0  0  0  0  0  0  0  0  0
    1.3470   -1.6735    1.1988 H   0  0  0  0  0  0  0  0  0  0  0  0
    3.5490   -2.3947    1.4793 H   0  0  0  0  0  0  0  0  0  0  0  0
  1  2  1  0
  2  3  1  0
  3  4  2  0
  4  5  1  0
  5  6  2  0
  6  7  1  0
  7  8  2  0
  8  9  1  0
  9 10  1  0
  6 11  1  0
 11 12  1  0
 12 13  2  0
 12 14  1  0
 14 15  1  0
 15 16  1  0
 16 17  2  0
 16 18  1  0
 18 19  1  0
 19 20  1  0
 20 21  1  0
 21 22  1  0
 22 23  2  0
 23 24  1  0
 24 25  2  0
 25 26  1  0
 26 27  2  0
 27 28  1  0
 28 29  1  0
 21 30  1  0
 30 31  1  0
 14 32  1  0
 32 33  2  0
  8  3  1  0
 31 18  1  0
 33  5  1  0
 27 22  1  0
  1 34  1  0
  1 35  1  0
  1 36  1  0
  4 37  1  0
  7 38  1  0
 10 39  1  0
 10 40  1  0
 10 41  1  0
 11 42  1  0
 11 43  1  0
 15 44  1  0
 15 45  1  0
 19 46  1  0
 19 47  1  0
 20 48  1  0
 20 49  1  0
 23 50  1  0
 24 51  1  0
 25 52  1  0
 26 53  1  0
 29 54  1  0
 29 55  1  0
 29 56  1  0
 30 57  1  0
 30 58  1  0
 31 59  1  0
 31 60  1  0
 32 61  1  0
 33 62  1  0
M  END
$$$$
