
     RDKit          3D

 50 53  0  0  0  0  0  0  0  0999 V2000
    6.0683    1.0016   -1.7422 C   0  0  0  0  0  0  0  0  0  0  0  0
    4.7783    0.3778   -1.3248 C   0  0  0  0  0  0  0  0  0  0  0  0
    4.1147   -0.9201   -2.2952 S   0  0  0  0  0  0  0  0  0  0  0  0
    2.7437   -1.0669   -1.2229 C   0  0  0  0  0  0  0  0  0  0  0  0
    1.7963   -1.9247   -1.4029 N   0  0  0  0  0  0  0  0  0  0  0  0
    0.7879   -1.8800   -0.4753 C   0  0  0  0  0  0  0  0  0  0  0  0
    0.7292   -1.0199    0.5501 C   0  0  0  0  0  0  0  0  0  0  0  0
   -0.4434   -1.0476    1.4438 C   0  0  0  0  0  0  0  0  0  0  0  0
   -0.3709   -1.6877    2.4919 O   0  0  0  0  0  0  0  0  0  0  0  0
   -1.5844   -0.3591    1.0382 N   0  0  0  0  0  0  0  0  0  0  0  0
   -1.7826    0.2200   -0.2978 C   0  0  0  0  0  0  0  0  0  0  0  0
   -0.8463    1.3552   -0.6399 C   0  0  0  0  0  0  0  0  0  0  0  0
   -0.2184    1.3930   -1.8952 C   0  0  0  0  0  0  0  0  0  0  0  0
    0.6520    2.4334   -2.2236 C   0  0  0  0  0  0  0  0  0  0  0  0
    0.8932    3.4548   -1.3081 C   0  0  0  0  0  0  0  0  0  0  0  0
    0.2607    3.4396   -0.0666 C   0  0  0  0  0  0  0  0  0  0  0  0
   -0.6100    2.3999    0.2642 C   0  0  0  0  0  0  0  0  0  0  0  0
   -2.7680   -0.4578    1.8897 C   0  0  0  0  0  0  0  0  0  0  0  0
   -3.7421   -1.5079    1.4042 C   0  0  0  0  0  0  0  0  0  0  0  0
   -4.9288   -1.1396    0.7533 C   0  0  0  0  0  0  0  0  0  0  0  0
   -5.8156   -2.1139    0.2911 C   0  0  0  0  0  0  0  0  0  0  0  0
   -5.5267   -3.4648    0.4745 C   0  0  0  0  0  0  0  0  0  0  0  0
   -4.3526   -3.8434    1.1220 C   0  0  0  0  0  0  0  0  0  0  0  0
   -3.4650   -2.8710    1.5846 C   0  0  0  0  0  0  0  0  0  0  0  0
    1.8650   -0.0949    0.7781 C   0  0  0  0  0  0  0  0  0  0  0  0
    1.8795    0.6320    1.7690 O   0  0  0  0  0  0  0  0  0  0  0  0
    2.8469   -0.1456   -0.1999 N   0  0  0  0  0  0  0  0  0  0  0  0
    3.9906    0.6570   -0.2656 C   0  0  0  0  0  0  0  0  0  0  0  0
    4.2439    1.7109    0.7678 C   0  0  0  0  0  0  0  0  0  0  0  0
    5.9693    1.4573   -2.7333 H   0  0  0  0  0  0  0  0  0  0  0  0
    6.8609    0.2469   -1.7888 H   0  0  0  0  0  0  0  0  0  0  0  0
    6.4066    1.7823   -1.0574 H   0  0  0  0  0  0  0  0  0  0  0  0
   -0.0174   -2.5948   -0.6360 H   0  0  0  0  0  0  0  0  0  0  0  0
   -1.6935   -0.5949   -1.0253 H   0  0  0  0  0  0  0  0  0  0  0  0
   -2.8030    0.6122   -0.3806 H   0  0  0  0  0  0  0  0  0  0  0  0
   -0.3936    0.6047   -2.6253 H   0  0  0  0  0  0  0  0  0  0  0  0
    1.1401    2.4475   -3.1949 H   0  0  0  0  0  0  0  0  0  0  0  0
    1.5713    4.2653   -1.5618 H   0  0  0  0  0  0  0  0  0  0  0  0
    0.4502    4.2342    0.6508 H   0  0  0  0  0  0  0  0  0  0  0  0
   -1.0841    2.3997    1.2437 H   0  0  0  0  0  0  0  0  0  0  0  0
   -3.2443    0.5300    1.9205 H   0  0  0  0  0  0  0  0  0  0  0  0
   -2.4858   -0.6856    2.9246 H   0  0  0  0  0  0  0  0  0  0  0  0
   -5.1731   -0.0905    0.6029 H   0  0  0  0  0  0  0  0  0  0  0  0
   -6.7339   -1.8194   -0.2105 H   0  0  0  0  0  0  0  0  0  0  0  0
   -6.2183   -4.2230    0.1167 H   0  0  0  0  0  0  0  0  0  0  0  0
   -4.1276   -4.8965    1.2707 H   0  0  0  0  0  0  0  0  0  0  0  0
   -2.5542   -3.1818    2.0944 H   0  0  0  0  0  0  0  0  0  0  0  0
    5.1534    2.2844    0.5738 H   0  0  0  0  0  0  0  0  0  0  0  0
    4.3609    1.2597    1.7584 H   0  0  0  0  0  0  0  0  0  0  0  0
    3.4209    2.4323    0.7948 H   0  0  0  0  0  0  0  0  0  0  0  0
  1  2  1  0
  2  3  1  0
  3  4  1  0
  4  5  2  0
  5  6  1  0
  6  7  2  0
  7  8  1  0
  8  9  2  0
  8 10  1  0
 10 11  1  0
 11 12  1  0
 12 13  2  0
 13 14  1  0
 14 15  2  0
 15 16  1  0
 16 17  2  0
 10 18  1  0
 18 19  1  0
 19 20  2  0
 20 21  1  0
 21 22  2  0
 22 23  1  0
 23 24  2  0
  7 25  1  0
 25 26  2  0
 25 27  1  0
 27 28  1  0
 28 29  1  0
 28  2  2  0
 27  4  1  0
 17 12  1  0
 24 19  1  0
  1 30  1  0
  1 31  1  0
  1 32  1  0
  6 33  1  0
 11 34  1  0
 11 35  1  0
 13 36  1  0
 14 37  1  0
 15 38  1  0
 16 39  1  0
 17 40  1  0
 18 41  1  0
 18 42  1  0
 20 43  1  0
 21 44  1  0
 22 45  1  0
 23 46  1  0
 24 47  1  0
 29 48  1  0
 29 49  1  0
 29 50  1  0
M  END
$$$$
