
     RDKit          3D

 51 54  0  0  0  0  0  0  0  0999 V2000
    7.3961    0.9105    0.2129 C   0  0  0  0  0  0  0  0  0  0  0  0
    5.9103    0.6945    0.3311 C   0  0  0  0  0  0  0  0  0  0  0  0
    5.2143    1.4420    1.0203 O   0  0  0  0  0  0  0  0  0  0  0  0
    5.3509   -0.5205   -0.4016 C   0  0  0  0  0  0  0  0  0  0  0  0
    3.9188   -0.3601   -0.5860 N   0  0  0  0  0  0  0  0  0  0  0  0
    3.0854   -0.8814    0.4070 C   0  0  0  0  0  0  0  0  0  0  0  0
    3.4873   -1.5274    1.3708 O   0  0  0  0  0  0  0  0  0  0  0  0
    1.7129   -0.6072    0.1713 C   0  0  0  0  0  0  0  0  0  0  0  0
    1.2674    0.0943   -0.9064 C   0  0  0  0  0  0  0  0  0  0  0  0
   -0.0865    0.2248   -0.9077 N   0  0  0  0  0  0  0  0  0  0  0  0
   -0.4941   -0.3760    0.1958 C   0  0  0  0  0  0  0  0  0  0  0  0
    0.5845   -0.9187    0.8668 N   0  0  0  0  0  0  0  0  0  0  0  0
    0.4725   -1.6907    2.0847 C   0  0  0  0  0  0  0  0  0  0  0  0
   -0.9317   -2.2570    2.2356 C   0  0  0  0  0  0  0  0  0  0  0  0
   -1.9582   -1.1499    2.0064 C   0  0  0  0  0  0  0  0  0  0  0  0
   -1.7531   -0.5132    0.6997 N   0  0  0  0  0  0  0  0  0  0  0  0
   -2.9196   -0.2367   -0.0525 C   0  0  0  0  0  0  0  0  0  0  0  0
   -3.0467   -0.8029   -1.3354 C   0  0  0  0  0  0  0  0  0  0  0  0
   -4.2006   -0.6366   -2.0961 C   0  0  0  0  0  0  0  0  0  0  0  0
   -5.2621    0.0991   -1.5855 C   0  0  0  0  0  0  0  0  0  0  0  0
   -5.1737    0.6979   -0.3203 C   0  0  0  0  0  0  0  0  0  0  0  0
   -6.3461    1.5071    0.1686 C   0  0  0  0  0  0  0  0  0  0  0  0
   -3.9806    0.5691    0.4373 C   0  0  0  0  0  0  0  0  0  0  0  0
   -3.8473    1.3070    1.7472 C   0  0  0  0  0  0  0  0  0  0  0  0
    2.1296    0.5934   -1.8539 N   0  0  0  0  0  0  0  0  0  0  0  0
    1.6143    1.3702   -2.9664 C   0  0  0  0  0  0  0  0  0  0  0  0
    3.5007    0.3981   -1.6960 C   0  0  0  0  0  0  0  0  0  0  0  0
    4.3267    0.8583   -2.4908 O   0  0  0  0  0  0  0  0  0  0  0  0
    7.6634    1.0517   -0.8372 H   0  0  0  0  0  0  0  0  0  0  0  0
    7.6848    1.8046    0.7723 H   0  0  0  0  0  0  0  0  0  0  0  0
    7.9247    0.0475    0.6250 H   0  0  0  0  0  0  0  0  0  0  0  0
    5.8452   -0.6107   -1.3744 H   0  0  0  0  0  0  0  0  0  0  0  0
    5.5793   -1.4138    0.1882 H   0  0  0  0  0  0  0  0  0  0  0  0
    0.7216   -1.0184    2.9128 H   0  0  0  0  0  0  0  0  0  0  0  0
    1.2008   -2.5064    2.0524 H   0  0  0  0  0  0  0  0  0  0  0  0
   -1.0885   -3.0575    1.5009 H   0  0  0  0  0  0  0  0  0  0  0  0
   -1.0576   -2.6969    3.2306 H   0  0  0  0  0  0  0  0  0  0  0  0
   -2.9601   -1.5900    2.0899 H   0  0  0  0  0  0  0  0  0  0  0  0
   -1.8605   -0.3997    2.8007 H   0  0  0  0  0  0  0  0  0  0  0  0
   -2.2330   -1.3974   -1.7448 H   0  0  0  0  0  0  0  0  0  0  0  0
   -4.2697   -1.0874   -3.0818 H   0  0  0  0  0  0  0  0  0  0  0  0
   -6.1603    0.2139   -2.1883 H   0  0  0  0  0  0  0  0  0  0  0  0
   -6.1265    2.5762    0.0885 H   0  0  0  0  0  0  0  0  0  0  0  0
   -6.5829    1.2564    1.2076 H   0  0  0  0  0  0  0  0  0  0  0  0
   -7.2469    1.3011   -0.4197 H   0  0  0  0  0  0  0  0  0  0  0  0
   -2.8067    1.5815    1.9471 H   0  0  0  0  0  0  0  0  0  0  0  0
   -4.2269    0.6911    2.5679 H   0  0  0  0  0  0  0  0  0  0  0  0
   -4.3957    2.2540    1.7352 H   0  0  0  0  0  0  0  0  0  0  0  0
    2.4026    1.6320   -3.6772 H   0  0  0  0  0  0  0  0  0  0  0  0
    1.1707    2.2929   -2.5791 H   0  0  0  0  0  0  0  0  0  0  0  0
    0.8510    0.7874   -3.4916 H   0  0  0  0  0  0  0  0  0  0  0  0
  1  2  1  0
  2  3  2  0
  2  4  1  0
  4  5  1  0
  5  6  1  0
  6  7  2  0
  6  8  1  0
  8  9  2  0
  9 10  1  0
 10 11  2  0
 11 12  1  0
 12 13  1  0
 13 14  1  0
 14 15  1  0
 15 16  1  0
 16 17  1  0
 17 18  2  0
 18 19  1  0
 19 20  2  0
 20 21  1  0
 21 22  1  0
 21 23  2  0
 23 24  1  0
  9 25  1  0
 25 26  1  0
 25 27  1  0
 27 28  2  0
 27  5  1  0
 12  8  1  0
 23 17  1  0
 16 11  1  0
  1 29  1  0
  1 30  1  0
  1 31  1  0
  4 32  1  0
  4 33  1  0
 13 34  1  0
 13 35  1  0
 14 36  1  0
 14 37  1  0
 15 38  1  0
 15 39  1  0
 18 40  1  0
 19 41  1  0
 20 42  1  0
 22 43  1  0
 22 44  1  0
 22 45  1  0
 24 46  1  0
 24 47  1  0
 24 48  1  0
 26 49  1  0
 26 50  1  0
 26 51  1  0
M  END
$$$$
