
     RDKit          3D

 51 54  0  0  0  0  0  0  0  0999 V2000
   -6.8824    0.0982    1.9896 C   0  0  0  0  0  0  0  0  0  0  0  0
   -5.8403   -0.5819    1.1080 C   0  0  0  0  0  0  0  0  0  0  0  0
   -5.5566    0.1722   -0.1215 N   0  0  0  0  0  0  0  0  0  0  0  0
   -4.7555   -0.6250   -1.0722 C   0  0  0  0  0  0  0  0  0  0  0  0
   -3.2839   -0.8373   -0.6649 C   0  0  0  0  0  0  0  0  0  0  0  0
   -2.6075    0.4063   -0.2757 N   0  0  0  0  0  0  0  0  0  0  0  0
   -1.2201    0.5345   -0.2174 C   0  0  0  0  0  0  0  0  0  0  0  0
   -0.6779    1.4539    0.3973 O   0  0  0  0  0  0  0  0  0  0  0  0
   -0.3978   -0.5065   -0.9797 C   0  0  0  0  0  0  0  0  0  0  0  0
    1.0812   -0.2351   -0.8858 C   0  0  0  0  0  0  0  0  0  0  0  0
    1.7191    0.7373   -1.8652 C   0  0  0  0  0  0  0  0  0  0  0  0
    0.8300    1.4520   -2.8624 C   0  0  0  0  0  0  0  0  0  0  0  0
    2.9893    1.0065   -1.9373 N   0  0  0  0  0  0  0  0  0  0  0  0
    3.8021    0.3902   -1.0384 C   0  0  0  0  0  0  0  0  0  0  0  0
    5.1049    0.4862   -0.9018 N   0  0  0  0  0  0  0  0  0  0  0  0
    5.3813   -0.3388    0.1526 C   0  0  0  0  0  0  0  0  0  0  0  0
    6.8426   -0.5361    0.6845 C   0  0  0  0  0  0  0  0  0  0  0  0
    7.9388    0.1000    0.1419 C   0  0  0  0  0  0  0  0  0  0  0  0
    9.1479   -0.2534    0.8107 C   0  0  0  0  0  0  0  0  0  0  0  0
    8.9256   -1.1455    1.8371 C   0  0  0  0  0  0  0  0  0  0  0  0
    7.2682   -1.5501    1.9879 S   0  0  0  0  0  0  0  0  0  0  0  0
    4.3216   -0.9578    0.6806 N   0  0  0  0  0  0  0  0  0  0  0  0
    3.3019   -0.4897   -0.0777 N   0  0  0  0  0  0  0  0  0  0  0  0
    1.9364   -0.8041   -0.0022 C   0  0  0  0  0  0  0  0  0  0  0  0
    1.5431   -1.7576    1.0920 C   0  0  0  0  0  0  0  0  0  0  0  0
   -3.3914    1.3136    0.5707 C   0  0  0  0  0  0  0  0  0  0  0  0
   -4.8556    1.4520    0.1158 C   0  0  0  0  0  0  0  0  0  0  0  0
   -7.1681   -0.5691    2.8097 H   0  0  0  0  0  0  0  0  0  0  0  0
   -6.5009    1.0206    2.4371 H   0  0  0  0  0  0  0  0  0  0  0  0
   -7.7880    0.3350    1.4212 H   0  0  0  0  0  0  0  0  0  0  0  0
   -4.9362   -0.7753    1.6959 H   0  0  0  0  0  0  0  0  0  0  0  0
   -6.2516   -1.5617    0.8337 H   0  0  0  0  0  0  0  0  0  0  0  0
   -4.7740   -0.1067   -2.0404 H   0  0  0  0  0  0  0  0  0  0  0  0
   -5.2324   -1.5961   -1.2529 H   0  0  0  0  0  0  0  0  0  0  0  0
   -2.7561   -1.3059   -1.5001 H   0  0  0  0  0  0  0  0  0  0  0  0
   -3.2143   -1.5221    0.1885 H   0  0  0  0  0  0  0  0  0  0  0  0
   -0.6304   -1.4986   -0.5804 H   0  0  0  0  0  0  0  0  0  0  0  0
   -0.7141   -0.5161   -2.0276 H   0  0  0  0  0  0  0  0  0  0  0  0
    1.3978    2.2247   -3.3904 H   0  0  0  0  0  0  0  0  0  0  0  0
    0.4568    0.7363   -3.5999 H   0  0  0  0  0  0  0  0  0  0  0  0
   -0.0070    1.9368   -2.3554 H   0  0  0  0  0  0  0  0  0  0  0  0
    7.8736    0.7865   -0.6945 H   0  0  0  0  0  0  0  0  0  0  0  0
   10.1279    0.1281    0.5517 H   0  0  0  0  0  0  0  0  0  0  0  0
    9.6535   -1.5807    2.5078 H   0  0  0  0  0  0  0  0  0  0  0  0
    0.4613   -1.8467    1.2181 H   0  0  0  0  0  0  0  0  0  0  0  0
    1.9398   -2.7575    0.8865 H   0  0  0  0  0  0  0  0  0  0  0  0
    1.9372   -1.4197    2.0573 H   0  0  0  0  0  0  0  0  0  0  0  0
   -3.3398    0.9277    1.5958 H   0  0  0  0  0  0  0  0  0  0  0  0
   -2.9252    2.3055    0.5757 H   0  0  0  0  0  0  0  0  0  0  0  0
   -4.8685    2.0135   -0.8284 H   0  0  0  0  0  0  0  0  0  0  0  0
   -5.4062    2.0794    0.8246 H   0  0  0  0  0  0  0  0  0  0  0  0
  1  2  1  0
  2  3  1  0
  3  4  1  0
  4  5  1  0
  5  6  1  0
  6  7  1  0
  7  8  2  0
  7  9  1  0
  9 10  1  0
 10 11  1  0
 11 12  1  0
 11 13  2  0
 13 14  1  0
 14 15  2  0
 15 16  1  0
 16 17  1  0
 17 18  2  0
 18 19  1  0
 19 20  2  0
 20 21  1  0
 16 22  2  0
 22 23  1  0
 23 24  1  0
 24 25  1  0
  6 26  1  0
 26 27  1  0
 27  3  1  0
 24 10  2  0
 23 14  1  0
 21 17  1  0
  1 28  1  0
  1 29  1  0
  1 30  1  0
  2 31  1  0
  2 32  1  0
  4 33  1  0
  4 34  1  0
  5 35  1  0
  5 36  1  0
  9 37  1  0
  9 38  1  0
 12 39  1  0
 12 40  1  0
 12 41  1  0
 18 42  1  0
 19 43  1  0
 20 44  1  0
 25 45  1  0
 25 46  1  0
 25 47  1  0
 26 48  1  0
 26 49  1  0
 27 50  1  0
 27 51  1  0
M  END
$$$$
