
     RDKit          3D

 39 41  0  0  0  0  0  0  0  0999 V2000
    7.2209   -0.2302   -0.8454 C   0  0  0  0  0  0  0  0  0  0  0  0
    5.7404   -0.3716   -0.6538 C   0  0  0  0  0  0  0  0  0  0  0  0
    4.8823    0.7028   -0.9118 C   0  0  0  0  0  0  0  0  0  0  0  0
    3.4968    0.5639   -0.7642 C   0  0  0  0  0  0  0  0  0  0  0  0
    2.9516   -0.6565   -0.3683 C   0  0  0  0  0  0  0  0  0  0  0  0
    1.6270   -0.9340   -0.1794 O   0  0  0  0  0  0  0  0  0  0  0  0
    0.6580    0.0727   -0.4907 C   0  0  0  0  0  0  0  0  0  0  0  0
    0.4173    0.9759    0.7189 C   0  0  0  0  0  0  0  0  0  0  0  0
   -0.7040    2.3576    0.3428 S   0  0  0  0  0  0  0  0  0  0  0  0
   -2.2485    1.5643    0.3636 C   0  0  0  0  0  0  0  0  0  0  0  0
   -2.3992    0.3063    0.6210 N   0  0  0  0  0  0  0  0  0  0  0  0
   -3.6895   -0.1357    0.5881 C   0  0  0  0  0  0  0  0  0  0  0  0
   -4.7631    0.6088    0.3233 C   0  0  0  0  0  0  0  0  0  0  0  0
   -4.5761    2.0275    0.0362 C   0  0  0  0  0  0  0  0  0  0  0  0
   -5.5064    2.7803   -0.2162 O   0  0  0  0  0  0  0  0  0  0  0  0
   -3.2686    2.4263    0.0765 N   0  0  0  0  0  0  0  0  0  0  0  0
   -6.0332   -0.1478    0.3594 C   0  0  0  0  0  0  0  0  0  0  0  0
   -5.5276   -1.5968    0.3749 C   0  0  0  0  0  0  0  0  0  0  0  0
   -4.0692   -1.5532    0.8556 C   0  0  0  0  0  0  0  0  0  0  0  0
    3.8073   -1.7325   -0.1209 C   0  0  0  0  0  0  0  0  0  0  0  0
    5.1899   -1.5967   -0.2677 C   0  0  0  0  0  0  0  0  0  0  0  0
    7.7672   -0.8556   -0.1314 H   0  0  0  0  0  0  0  0  0  0  0  0
    7.4968   -0.5276   -1.8618 H   0  0  0  0  0  0  0  0  0  0  0  0
    7.5405    0.8043   -0.6813 H   0  0  0  0  0  0  0  0  0  0  0  0
    5.2869    1.6617   -1.2289 H   0  0  0  0  0  0  0  0  0  0  0  0
    2.8809    1.4333   -0.9650 H   0  0  0  0  0  0  0  0  0  0  0  0
   -0.2609   -0.4685   -0.7403 H   0  0  0  0  0  0  0  0  0  0  0  0
    0.9288    0.6274   -1.3967 H   0  0  0  0  0  0  0  0  0  0  0  0
    1.3645    1.4132    1.0512 H   0  0  0  0  0  0  0  0  0  0  0  0
    0.0535    0.3945    1.5735 H   0  0  0  0  0  0  0  0  0  0  0  0
   -3.0630    3.3950   -0.1081 H   0  0  0  0  0  0  0  0  0  0  0  0
   -6.5976    0.0850    1.2682 H   0  0  0  0  0  0  0  0  0  0  0  0
   -6.6640    0.0402   -0.5142 H   0  0  0  0  0  0  0  0  0  0  0  0
   -6.1479   -2.2407    1.0071 H   0  0  0  0  0  0  0  0  0  0  0  0
   -5.5664   -2.0102   -0.6417 H   0  0  0  0  0  0  0  0  0  0  0  0
   -3.9970   -1.7752    1.9255 H   0  0  0  0  0  0  0  0  0  0  0  0
   -3.4513   -2.2642    0.2991 H   0  0  0  0  0  0  0  0  0  0  0  0
    3.3922   -2.6896    0.1858 H   0  0  0  0  0  0  0  0  0  0  0  0
    5.8308   -2.4544   -0.0773 H   0  0  0  0  0  0  0  0  0  0  0  0
  1  2  1  0
  2  3  2  0
  3  4  1  0
  4  5  2  0
  5  6  1  0
  6  7  1  0
  7  8  1  0
  8  9  1  0
  9 10  1  0
 10 11  2  0
 11 12  1  0
 12 13  2  0
 13 14  1  0
 14 15  2  0
 14 16  1  0
 13 17  1  0
 17 18  1  0
 18 19  1  0
  5 20  1  0
 20 21  2  0
 21  2  1  0
 16 10  1  0
 19 12  1  0
  1 22  1  0
  1 23  1  0
  1 24  1  0
  3 25  1  0
  4 26  1  0
  7 27  1  0
  7 28  1  0
  8 29  1  0
  8 30  1  0
 16 31  1  0
 17 32  1  0
 17 33  1  0
 18 34  1  0
 18 35  1  0
 19 36  1  0
 19 37  1  0
 20 38  1  0
 21 39  1  0
M  END
$$$$
