
     RDKit          3D

 38 40  0  0  0  0  0  0  0  0999 V2000
    6.5369    1.7437   -0.4940 C   0  0  0  0  0  0  0  0  0  0  0  0
    5.1550    1.1638   -0.4333 C   0  0  0  0  0  0  0  0  0  0  0  0
    4.0637    1.9658   -0.0823 C   0  0  0  0  0  0  0  0  0  0  0  0
    2.7707    1.4326   -0.0565 C   0  0  0  0  0  0  0  0  0  0  0  0
    2.5429    0.0905   -0.3911 C   0  0  0  0  0  0  0  0  0  0  0  0
    1.1958   -0.4757   -0.3672 C   0  0  0  0  0  0  0  0  0  0  0  0
    0.9548   -1.7864   -0.7032 N   0  0  0  0  0  0  0  0  0  0  0  0
   -0.3438   -1.9243   -0.5652 C   0  0  0  0  0  0  0  0  0  0  0  0
   -1.1203   -3.0284   -0.7613 N   0  0  0  0  0  0  0  0  0  0  0  0
   -2.3932   -2.8861   -0.5407 C   0  0  0  0  0  0  0  0  0  0  0  0
   -3.2794   -4.0897   -0.7495 C   0  0  0  0  0  0  0  0  0  0  0  0
   -3.0590   -1.6206   -0.0952 C   0  0  0  0  0  0  0  0  0  0  0  0
   -2.2705   -0.5464    0.0868 C   0  0  0  0  0  0  0  0  0  0  0  0
   -2.7057    0.7205    0.4883 N   0  0  0  0  0  0  0  0  0  0  0  0
   -3.8990    0.9921    1.2757 C   0  0  0  0  0  0  0  0  0  0  0  0
   -4.1076    2.4991    1.4527 C   0  0  0  0  0  0  0  0  0  0  0  0
   -5.3182    2.7641    2.1539 O   0  0  0  0  0  0  0  0  0  0  0  0
   -0.8845   -0.7068   -0.1544 N   0  0  0  0  0  0  0  0  0  0  0  0
    0.1024    0.2179   -0.0175 N   0  0  0  0  0  0  0  0  0  0  0  0
    3.6378   -0.7044   -0.7565 C   0  0  0  0  0  0  0  0  0  0  0  0
    4.9309   -0.1722   -0.7826 C   0  0  0  0  0  0  0  0  0  0  0  0
    7.2905    0.9817   -0.2688 H   0  0  0  0  0  0  0  0  0  0  0  0
    6.6566    2.5456    0.2421 H   0  0  0  0  0  0  0  0  0  0  0  0
    6.7295    2.1480   -1.4925 H   0  0  0  0  0  0  0  0  0  0  0  0
    4.2105    3.0125    0.1747 H   0  0  0  0  0  0  0  0  0  0  0  0
    1.9401    2.0765    0.2245 H   0  0  0  0  0  0  0  0  0  0  0  0
   -3.2002   -4.4188   -1.7898 H   0  0  0  0  0  0  0  0  0  0  0  0
   -4.3257   -3.8638   -0.5294 H   0  0  0  0  0  0  0  0  0  0  0  0
   -2.9475   -4.8996   -0.0932 H   0  0  0  0  0  0  0  0  0  0  0  0
   -4.1292   -1.6115    0.0488 H   0  0  0  0  0  0  0  0  0  0  0  0
   -1.8999    1.3125    0.7254 H   0  0  0  0  0  0  0  0  0  0  0  0
   -3.8200    0.5158    2.2602 H   0  0  0  0  0  0  0  0  0  0  0  0
   -4.7849    0.5675    0.7891 H   0  0  0  0  0  0  0  0  0  0  0  0
   -3.2822    2.9324    2.0272 H   0  0  0  0  0  0  0  0  0  0  0  0
   -4.1437    3.0122    0.4854 H   0  0  0  0  0  0  0  0  0  0  0  0
   -6.0535    2.6000    1.5381 H   0  0  0  0  0  0  0  0  0  0  0  0
    3.4895   -1.7485   -1.0274 H   0  0  0  0  0  0  0  0  0  0  0  0
    5.7602   -0.8114   -1.0773 H   0  0  0  0  0  0  0  0  0  0  0  0
  1  2  1  0
  2  3  2  0
  3  4  1  0
  4  5  2  0
  5  6  1  0
  6  7  1  0
  7  8  2  0
  8  9  1  0
  9 10  2  0
 10 11  1  0
 10 12  1  0
 12 13  2  0
 13 14  1  0
 14 15  1  0
 15 16  1  0
 16 17  1  0
 13 18  1  0
 18 19  1  0
  5 20  1  0
 20 21  2  0
 21  2  1  0
 19  6  2  0
 18  8  1  0
  1 22  1  0
  1 23  1  0
  1 24  1  0
  3 25  1  0
  4 26  1  0
 11 27  1  0
 11 28  1  0
 11 29  1  0
 12 30  1  0
 14 31  1  0
 15 32  1  0
 15 33  1  0
 16 34  1  0
 16 35  1  0
 17 36  1  0
 20 37  1  0
 21 38  1  0
M  END
$$$$
