
     RDKit          3D

 54 57  0  0  0  0  0  0  0  0999 V2000
    3.2625    0.8613   -2.6728 C   0  0  0  0  0  0  0  0  0  0  0  0
    2.5381    0.7258   -1.4319 N   0  0  0  0  0  0  0  0  0  0  0  0
    3.0855    0.7461   -0.1659 C   0  0  0  0  0  0  0  0  0  0  0  0
    4.5502    0.9220    0.1174 C   0  0  0  0  0  0  0  0  0  0  0  0
    5.3835   -0.1291   -0.4941 N   0  0  0  0  0  0  0  0  0  0  0  0
    5.1678   -1.4551    0.1350 C   0  0  0  0  0  0  0  0  0  0  0  0
    6.2363   -1.8244    1.1762 C   0  0  0  0  0  0  0  0  0  0  0  0
    7.5652   -1.8504    0.6361 O   0  0  0  0  0  0  0  0  0  0  0  0
    7.7360   -0.9720   -0.4840 C   0  0  0  0  0  0  0  0  0  0  0  0
    6.8120    0.2518   -0.4157 C   0  0  0  0  0  0  0  0  0  0  0  0
    2.1472    0.5870    0.7504 N   0  0  0  0  0  0  0  0  0  0  0  0
    0.9710    0.4478    0.0596 C   0  0  0  0  0  0  0  0  0  0  0  0
   -0.3286    0.2462    0.5504 C   0  0  0  0  0  0  0  0  0  0  0  0
   -1.3976    0.1227   -0.3519 C   0  0  0  0  0  0  0  0  0  0  0  0
   -2.6784   -0.0766    0.2087 N   0  0  0  0  0  0  0  0  0  0  0  0
   -3.8833   -0.2458   -0.4570 C   0  0  0  0  0  0  0  0  0  0  0  0
   -4.0352   -0.2706   -1.6733 O   0  0  0  0  0  0  0  0  0  0  0  0
   -5.0606   -0.4118    0.5141 C   0  0  0  0  0  0  0  0  0  0  0  0
   -6.3406   -0.8887   -0.1998 C   0  0  0  0  0  0  0  0  0  0  0  0
   -7.6325   -0.5114    0.5315 C   0  0  0  0  0  0  0  0  0  0  0  0
   -7.4212   -0.3795    2.0323 C   0  0  0  0  0  0  0  0  0  0  0  0
   -6.3938    0.7027    2.3647 C   0  0  0  0  0  0  0  0  0  0  0  0
   -5.3269    0.8877    1.2827 C   0  0  0  0  0  0  0  0  0  0  0  0
   -1.1511    0.2031   -1.7252 C   0  0  0  0  0  0  0  0  0  0  0  0
    0.1413    0.4047   -2.2350 C   0  0  0  0  0  0  0  0  0  0  0  0
    1.1829    0.5263   -1.3109 C   0  0  0  0  0  0  0  0  0  0  0  0
    3.6678   -0.1170   -2.9420 H   0  0  0  0  0  0  0  0  0  0  0  0
    2.5881    1.2155   -3.4559 H   0  0  0  0  0  0  0  0  0  0  0  0
    4.0643    1.5929   -2.5494 H   0  0  0  0  0  0  0  0  0  0  0  0
    4.7076    0.9594    1.2033 H   0  0  0  0  0  0  0  0  0  0  0  0
    4.8429    1.9044   -0.2762 H   0  0  0  0  0  0  0  0  0  0  0  0
    4.1712   -1.5514    0.5792 H   0  0  0  0  0  0  0  0  0  0  0  0
    5.2107   -2.1948   -0.6747 H   0  0  0  0  0  0  0  0  0  0  0  0
    6.2224   -1.1176    2.0140 H   0  0  0  0  0  0  0  0  0  0  0  0
    6.0326   -2.8185    1.5870 H   0  0  0  0  0  0  0  0  0  0  0  0
    7.5629   -1.5451   -1.4025 H   0  0  0  0  0  0  0  0  0  0  0  0
    8.7833   -0.6533   -0.4928 H   0  0  0  0  0  0  0  0  0  0  0  0
    7.0179    0.7792    0.5254 H   0  0  0  0  0  0  0  0  0  0  0  0
    7.0421    0.9346   -1.2409 H   0  0  0  0  0  0  0  0  0  0  0  0
   -0.4704    0.1894    1.6229 H   0  0  0  0  0  0  0  0  0  0  0  0
   -2.7088   -0.1179    1.2197 H   0  0  0  0  0  0  0  0  0  0  0  0
   -4.7688   -1.1911    1.2328 H   0  0  0  0  0  0  0  0  0  0  0  0
   -6.4071   -0.4995   -1.2227 H   0  0  0  0  0  0  0  0  0  0  0  0
   -6.2882   -1.9805   -0.3026 H   0  0  0  0  0  0  0  0  0  0  0  0
   -8.4052   -1.2594    0.3208 H   0  0  0  0  0  0  0  0  0  0  0  0
   -8.0062    0.4421    0.1371 H   0  0  0  0  0  0  0  0  0  0  0  0
   -7.0799   -1.3420    2.4338 H   0  0  0  0  0  0  0  0  0  0  0  0
   -8.3696   -0.1524    2.5322 H   0  0  0  0  0  0  0  0  0  0  0  0
   -6.9023    1.6615    2.5229 H   0  0  0  0  0  0  0  0  0  0  0  0
   -5.9149    0.4502    3.3185 H   0  0  0  0  0  0  0  0  0  0  0  0
   -5.6572    1.6609    0.5758 H   0  0  0  0  0  0  0  0  0  0  0  0
   -4.4157    1.2823    1.7466 H   0  0  0  0  0  0  0  0  0  0  0  0
   -1.9569    0.1119   -2.4484 H   0  0  0  0  0  0  0  0  0  0  0  0
    0.3074    0.4607   -3.3054 H   0  0  0  0  0  0  0  0  0  0  0  0
  1  2  1  0
  2  3  1  0
  3  4  1  0
  4  5  1  0
  5  6  1  0
  6  7  1  0
  7  8  1  0
  8  9  1  0
  9 10  1  0
  3 11  2  0
 11 12  1  0
 12 13  2  0
 13 14  1  0
 14 15  1  0
 15 16  1  0
 16 17  2  0
 16 18  1  0
 18 19  1  0
 19 20  1  0
 20 21  1  0
 21 22  1  0
 22 23  1  0
 14 24  2  0
 24 25  1  0
 25 26  2  0
 26  2  1  0
 10  5  1  0
 26 12  1  0
 23 18  1  0
  1 27  1  0
  1 28  1  0
  1 29  1  0
  4 30  1  0
  4 31  1  0
  6 32  1  0
  6 33  1  0
  7 34  1  0
  7 35  1  0
  9 36  1  0
  9 37  1  0
 10 38  1  0
 10 39  1  0
 13 40  1  0
 15 41  1  0
 18 42  1  0
 19 43  1  0
 19 44  1  0
 20 45  1  0
 20 46  1  0
 21 47  1  0
 21 48  1  0
 22 49  1  0
 22 50  1  0
 23 51  1  0
 23 52  1  0
 24 53  1  0
 25 54  1  0
M  END
$$$$
