
     RDKit          3D

 39 43  0  0  0  0  0  0  0  0999 V2000
    0.5616    0.7645   -2.3069 O   0  0  0  0  0  0  0  0  0  0  0  0
    0.7423   -0.2701   -1.3052 S   0  0  0  0  0  6  0  0  0  0  0  0
    0.4271   -1.6534   -1.5841 O   0  0  0  0  0  0  0  0  0  0  0  0
    2.4642   -0.2572   -0.8370 C   0  0  0  0  0  0  0  0  0  0  0  0
    3.3783    0.5646   -1.5270 C   0  0  0  0  0  0  0  0  0  0  0  0
    4.7241    0.5767   -1.1502 C   0  0  0  0  0  0  0  0  0  0  0  0
    5.1043   -0.2356   -0.1013 C   0  0  0  0  0  0  0  0  0  0  0  0
    4.2052   -1.0400    0.5632 C   0  0  0  0  0  0  0  0  0  0  0  0
    2.8724   -1.0793    0.2206 C   0  0  0  0  0  0  0  0  0  0  0  0
    4.7900   -1.7559    1.5601 O   0  0  0  0  0  0  0  0  0  0  0  0
    6.1627   -1.3299    1.4342 C   0  0  0  0  0  0  0  0  0  0  0  0
    6.3651   -0.3482    0.3959 O   0  0  0  0  0  0  0  0  0  0  0  0
    0.0032    0.2687    0.1299 N   0  0  0  0  0  0  0  0  0  0  0  0
    0.3164    1.6838    0.5316 C   0  0  0  0  0  0  0  0  0  0  0  0
   -0.9734    2.5024    0.3439 C   0  0  0  0  0  0  0  0  0  0  0  0
   -2.0005    1.4333    0.2517 C   0  0  0  0  0  0  0  0  0  0  0  0
   -3.3762    1.5237    0.2641 C   0  0  0  0  0  0  0  0  0  0  0  0
   -4.1124    0.3381    0.1208 C   0  0  0  0  0  0  0  0  0  0  0  0
   -5.5173    0.3460    0.1243 C   0  0  0  0  0  0  0  0  0  0  0  0
   -6.2286   -0.8438   -0.0199 C   0  0  0  0  0  0  0  0  0  0  0  0
   -5.5422   -2.0441   -0.1685 C   0  0  0  0  0  0  0  0  0  0  0  0
   -4.1442   -2.0534   -0.1726 C   0  0  0  0  0  0  0  0  0  0  0  0
   -3.4063   -0.8872   -0.0312 C   0  0  0  0  0  0  0  0  0  0  0  0
   -2.0635   -0.9598   -0.0428 N   0  0  0  0  0  0  0  0  0  0  0  0
   -1.4146    0.1973    0.0749 C   0  0  0  0  0  0  0  0  0  0  0  0
    3.0478    1.1866   -2.3566 H   0  0  0  0  0  0  0  0  0  0  0  0
    5.4484    1.1974   -1.6663 H   0  0  0  0  0  0  0  0  0  0  0  0
    2.1741   -1.7234    0.7453 H   0  0  0  0  0  0  0  0  0  0  0  0
    6.7839   -2.2061    1.2151 H   0  0  0  0  0  0  0  0  0  0  0  0
    6.4848   -0.9002    2.3896 H   0  0  0  0  0  0  0  0  0  0  0  0
    0.6068    1.6676    1.5899 H   0  0  0  0  0  0  0  0  0  0  0  0
    1.1489    2.1281   -0.0212 H   0  0  0  0  0  0  0  0  0  0  0  0
   -1.1414    3.1798    1.1858 H   0  0  0  0  0  0  0  0  0  0  0  0
   -0.9387    3.0735   -0.5897 H   0  0  0  0  0  0  0  0  0  0  0  0
   -3.8683    2.4843    0.3774 H   0  0  0  0  0  0  0  0  0  0  0  0
   -6.0654    1.2784    0.2382 H   0  0  0  0  0  0  0  0  0  0  0  0
   -7.3156   -0.8341   -0.0181 H   0  0  0  0  0  0  0  0  0  0  0  0
   -6.0884   -2.9769   -0.2841 H   0  0  0  0  0  0  0  0  0  0  0  0
   -3.6147   -2.9962   -0.2934 H   0  0  0  0  0  0  0  0  0  0  0  0
  1  2  2  0
  2  3  2  0
  2  4  1  0
  4  5  2  0
  5  6  1  0
  6  7  2  0
  7  8  1  0
  8  9  2  0
  8 10  1  0
 10 11  1  0
 11 12  1  0
  2 13  1  0
 13 14  1  0
 14 15  1  0
 15 16  1  0
 16 17  2  0
 17 18  1  0
 18 19  2  0
 19 20  1  0
 20 21  2  0
 21 22  1  0
 22 23  2  0
 23 24  1  0
 24 25  2  0
  9  4  1  0
 25 13  1  0
 12  7  1  0
 25 16  1  0
 23 18  1  0
  5 26  1  0
  6 27  1  0
  9 28  1  0
 11 29  1  0
 11 30  1  0
 14 31  1  0
 14 32  1  0
 15 33  1  0
 15 34  1  0
 17 35  1  0
 19 36  1  0
 20 37  1  0
 21 38  1  0
 22 39  1  0
M  END
$$$$
