
     RDKit          3D

 43 45  0  0  0  0  0  0  0  0999 V2000
   -8.0533   -1.2475    0.2423 C   0  0  0  0  0  0  0  0  0  0  0  0
   -6.7298   -1.7980    0.7052 C   0  0  0  0  0  0  0  0  0  0  0  0
   -6.6688   -2.8224    1.3823 O   0  0  0  0  0  0  0  0  0  0  0  0
   -5.4760   -1.0796    0.3296 C   0  0  0  0  0  0  0  0  0  0  0  0
   -5.4835    0.0888   -0.4377 C   0  0  0  0  0  0  0  0  0  0  0  0
   -4.2797    0.7287   -0.7654 C   0  0  0  0  0  0  0  0  0  0  0  0
   -3.0573    0.2122   -0.3329 C   0  0  0  0  0  0  0  0  0  0  0  0
   -1.8114    0.7964   -0.6210 N   0  0  0  0  0  0  0  0  0  0  0  0
   -1.5499    1.9408   -1.3520 C   0  0  0  0  0  0  0  0  0  0  0  0
   -2.3785    2.6683   -1.8929 O   0  0  0  0  0  0  0  0  0  0  0  0
   -0.0544    2.2619   -1.4482 C   0  0  0  0  0  0  0  0  0  0  0  0
    0.7321    1.2951   -0.7538 O   0  0  0  0  0  0  0  0  0  0  0  0
    2.0885    1.4745   -0.7678 C   0  0  0  0  0  0  0  0  0  0  0  0
    2.7709    2.5145   -1.3977 C   0  0  0  0  0  0  0  0  0  0  0  0
    4.1640    2.5763   -1.3318 C   0  0  0  0  0  0  0  0  0  0  0  0
    4.8785    1.5994   -0.6365 C   0  0  0  0  0  0  0  0  0  0  0  0
    4.2122    0.5457    0.0037 C   0  0  0  0  0  0  0  0  0  0  0  0
    4.9838   -0.4611    0.7229 C   0  0  0  0  0  0  0  0  0  0  0  0
    6.2853   -0.5644    0.8901 N   0  0  0  0  0  0  0  0  0  0  0  0
    6.3916   -1.7035    1.6452 C   0  0  0  0  0  0  0  0  0  0  0  0
    7.6889   -2.2397    2.0959 C   0  0  0  0  0  0  0  0  0  0  0  0
    5.2293   -2.2961    1.9450 N   0  0  0  0  0  0  0  0  0  0  0  0
    4.2861   -1.4691    1.3307 O   0  0  0  0  0  0  0  0  0  0  0  0
    2.8115    0.4980   -0.0721 C   0  0  0  0  0  0  0  0  0  0  0  0
   -3.0526   -0.9574    0.4349 C   0  0  0  0  0  0  0  0  0  0  0  0
   -4.2514   -1.5989    0.7642 C   0  0  0  0  0  0  0  0  0  0  0  0
   -8.0970   -1.2335   -0.8497 H   0  0  0  0  0  0  0  0  0  0  0  0
   -8.2123   -0.2472    0.6532 H   0  0  0  0  0  0  0  0  0  0  0  0
   -8.8581   -1.8946    0.6052 H   0  0  0  0  0  0  0  0  0  0  0  0
   -6.4082    0.5301   -0.7980 H   0  0  0  0  0  0  0  0  0  0  0  0
   -4.3347    1.6336   -1.3635 H   0  0  0  0  0  0  0  0  0  0  0  0
   -0.9855    0.3318   -0.2529 H   0  0  0  0  0  0  0  0  0  0  0  0
    0.2039    2.2631   -2.5135 H   0  0  0  0  0  0  0  0  0  0  0  0
    0.0884    3.2536   -1.0037 H   0  0  0  0  0  0  0  0  0  0  0  0
    2.2551    3.2946   -1.9487 H   0  0  0  0  0  0  0  0  0  0  0  0
    4.6963    3.3877   -1.8232 H   0  0  0  0  0  0  0  0  0  0  0  0
    5.9653    1.6641   -0.5959 H   0  0  0  0  0  0  0  0  0  0  0  0
    7.7310   -2.2784    3.1888 H   0  0  0  0  0  0  0  0  0  0  0  0
    8.5139   -1.6110    1.7467 H   0  0  0  0  0  0  0  0  0  0  0  0
    7.8443   -3.2505    1.7062 H   0  0  0  0  0  0  0  0  0  0  0  0
    2.2636   -0.3071    0.4140 H   0  0  0  0  0  0  0  0  0  0  0  0
   -2.1199   -1.3892    0.7897 H   0  0  0  0  0  0  0  0  0  0  0  0
   -4.2223   -2.5079    1.3630 H   0  0  0  0  0  0  0  0  0  0  0  0
  1  2  1  0
  2  3  2  0
  2  4  1  0
  4  5  2  0
  5  6  1  0
  6  7  2  0
  7  8  1  0
  8  9  1  0
  9 10  2  0
  9 11  1  0
 11 12  1  0
 12 13  1  0
 13 14  2  0
 14 15  1  0
 15 16  2  0
 16 17  1  0
 17 18  1  0
 18 19  2  0
 19 20  1  0
 20 21  1  0
 20 22  2  0
 22 23  1  0
 17 24  2  0
  7 25  1  0
 25 26  2  0
 26  4  1  0
 24 13  1  0
 23 18  1  0
  1 27  1  0
  1 28  1  0
  1 29  1  0
  5 30  1  0
  6 31  1  0
  8 32  1  0
 11 33  1  0
 11 34  1  0
 14 35  1  0
 15 36  1  0
 16 37  1  0
 21 38  1  0
 21 39  1  0
 21 40  1  0
 24 41  1  0
 25 42  1  0
 26 43  1  0
M  END
$$$$
