
     RDKit          3D

 56 58  0  0  0  0  0  0  0  0999 V2000
    9.5342   -1.0084   -0.0663 C   0  0  0  0  0  0  0  0  0  0  0  0
    8.0352   -1.0278   -0.0794 C   0  0  0  0  0  0  0  0  0  0  0  0
    7.3414   -1.9075   -0.9136 C   0  0  0  0  0  0  0  0  0  0  0  0
    5.9423   -1.8992   -0.9449 C   0  0  0  0  0  0  0  0  0  0  0  0
    5.2014   -0.9913   -0.1729 C   0  0  0  0  0  0  0  0  0  0  0  0
    3.7910   -1.0668   -0.1954 N   0  0  0  0  0  0  0  0  0  0  0  0
    2.8395   -0.0686    0.1335 C   0  0  0  0  0  0  0  0  0  0  0  0
    1.5158   -0.4604    0.2517 C   0  0  0  0  0  0  0  0  0  0  0  0
    0.5681    0.4925    0.5806 C   0  0  0  0  0  0  0  0  0  0  0  0
   -0.7735    0.1544    0.7306 N   0  0  0  0  0  0  0  0  0  0  0  0
   -1.3834   -0.8252   -0.1814 C   0  0  0  0  0  0  0  0  0  0  0  0
   -2.7536   -0.3623   -0.7180 C   0  0  0  0  0  0  0  0  0  0  0  0
   -3.6783    0.0690    0.3363 N   0  0  0  0  0  0  0  0  0  0  0  0
   -5.0642    0.0280    0.2577 C   0  0  0  0  0  0  0  0  0  0  0  0
   -5.7698    0.3923    1.1967 O   0  0  0  0  0  0  0  0  0  0  0  0
   -5.6541   -0.5009   -1.0468 C   0  0  0  0  0  0  0  0  0  0  0  0
   -7.1803   -0.3970   -1.2144 C   0  0  0  0  0  0  0  0  0  0  0  0
   -7.6802    1.0474   -1.1923 C   0  0  0  0  0  0  0  0  0  0  0  0
   -7.9509   -1.2673   -0.2215 C   0  0  0  0  0  0  0  0  0  0  0  0
   -3.0631    0.6500    1.5358 C   0  0  0  0  0  0  0  0  0  0  0  0
   -1.6529    1.2035    1.2740 C   0  0  0  0  0  0  0  0  0  0  0  0
    0.9403    1.7623    0.8031 N   0  0  0  0  0  0  0  0  0  0  0  0
    2.2404    2.0713    0.6694 C   0  0  0  0  0  0  0  0  0  0  0  0
    2.6484    3.4832    0.9488 C   0  0  0  0  0  0  0  0  0  0  0  0
    3.2063    1.2010    0.3457 N   0  0  0  0  0  0  0  0  0  0  0  0
    5.9067   -0.1304    0.6733 C   0  0  0  0  0  0  0  0  0  0  0  0
    7.3062   -0.1338    0.7088 C   0  0  0  0  0  0  0  0  0  0  0  0
    9.9398   -2.0036   -0.2767 H   0  0  0  0  0  0  0  0  0  0  0  0
    9.9058   -0.3083   -0.8208 H   0  0  0  0  0  0  0  0  0  0  0  0
    9.9126   -0.7049    0.9154 H   0  0  0  0  0  0  0  0  0  0  0  0
    7.8829   -2.6115   -1.5411 H   0  0  0  0  0  0  0  0  0  0  0  0
    5.4365   -2.6124   -1.5902 H   0  0  0  0  0  0  0  0  0  0  0  0
    3.4597   -1.6072   -0.9859 H   0  0  0  0  0  0  0  0  0  0  0  0
    1.2442   -1.5000    0.1289 H   0  0  0  0  0  0  0  0  0  0  0  0
   -1.5121   -1.7644    0.3700 H   0  0  0  0  0  0  0  0  0  0  0  0
   -0.7457   -1.0362   -1.0482 H   0  0  0  0  0  0  0  0  0  0  0  0
   -2.6187    0.4987   -1.3841 H   0  0  0  0  0  0  0  0  0  0  0  0
   -3.1964   -1.1687   -1.3084 H   0  0  0  0  0  0  0  0  0  0  0  0
   -5.3710   -1.5570   -1.1332 H   0  0  0  0  0  0  0  0  0  0  0  0
   -5.1844    0.0441   -1.8749 H   0  0  0  0  0  0  0  0  0  0  0  0
   -7.4044   -0.7924   -2.2149 H   0  0  0  0  0  0  0  0  0  0  0  0
   -7.5757    1.5063   -0.2049 H   0  0  0  0  0  0  0  0  0  0  0  0
   -7.1294    1.6607   -1.9132 H   0  0  0  0  0  0  0  0  0  0  0  0
   -8.7409    1.0887   -1.4633 H   0  0  0  0  0  0  0  0  0  0  0  0
   -9.0155   -1.2880   -0.4795 H   0  0  0  0  0  0  0  0  0  0  0  0
   -7.5849   -2.2991   -0.2423 H   0  0  0  0  0  0  0  0  0  0  0  0
   -7.8710   -0.8978    0.8045 H   0  0  0  0  0  0  0  0  0  0  0  0
   -3.0200   -0.1505    2.2845 H   0  0  0  0  0  0  0  0  0  0  0  0
   -3.7029    1.4445    1.9352 H   0  0  0  0  0  0  0  0  0  0  0  0
   -1.2531    1.5844    2.2219 H   0  0  0  0  0  0  0  0  0  0  0  0
   -1.7197    2.0398    0.5659 H   0  0  0  0  0  0  0  0  0  0  0  0
    2.9047    3.5899    2.0068 H   0  0  0  0  0  0  0  0  0  0  0  0
    1.8337    4.1743    0.7115 H   0  0  0  0  0  0  0  0  0  0  0  0
    3.5183    3.7595    0.3451 H   0  0  0  0  0  0  0  0  0  0  0  0
    5.3770    0.5575    1.3264 H   0  0  0  0  0  0  0  0  0  0  0  0
    7.8176    0.5650    1.3667 H   0  0  0  0  0  0  0  0  0  0  0  0
  1  2  1  0
  2  3  2  0
  3  4  1  0
  4  5  2  0
  5  6  1  0
  6  7  1  0
  7  8  2  0
  8  9  1  0
  9 10  1  0
 10 11  1  0
 11 12  1  0
 12 13  1  0
 13 14  1  0
 14 15  2  0
 14 16  1  0
 16 17  1  0
 17 18  1  0
 17 19  1  0
 13 20  1  0
 20 21  1  0
  9 22  2  0
 22 23  1  0
 23 24  1  0
 23 25  2  0
  5 26  1  0
 26 27  2  0
 27  2  1  0
 25  7  1  0
 21 10  1  0
  1 28  1  0
  1 29  1  0
  1 30  1  0
  3 31  1  0
  4 32  1  0
  6 33  1  0
  8 34  1  0
 11 35  1  0
 11 36  1  0
 12 37  1  0
 12 38  1  0
 16 39  1  0
 16 40  1  0
 17 41  1  0
 18 42  1  0
 18 43  1  0
 18 44  1  0
 19 45  1  0
 19 46  1  0
 19 47  1  0
 20 48  1  0
 20 49  1  0
 21 50  1  0
 21 51  1  0
 24 52  1  0
 24 53  1  0
 24 54  1  0
 26 55  1  0
 27 56  1  0
M  END
$$$$
