
     RDKit          3D

 34 36  0  0  0  0  0  0  0  0999 V2000
    5.2744   -1.1218   -0.5633 C   0  0  0  0  0  0  0  0  0  0  0  0
    4.0240   -2.2783   -1.1840 S   0  0  0  0  0  0  0  0  0  0  0  0
    2.5481   -1.3117   -0.9249 C   0  0  0  0  0  0  0  0  0  0  0  0
    2.2160   -0.7920    0.3272 C   0  0  0  0  0  0  0  0  0  0  0  0
    1.0444   -0.0464    0.5003 C   0  0  0  0  0  0  0  0  0  0  0  0
    0.1722    0.1876   -0.5750 C   0  0  0  0  0  0  0  0  0  0  0  0
   -1.1088    0.9964   -0.4374 C   0  0  0  0  0  0  0  0  0  0  0  0
   -0.9211    2.3745    0.2232 C   0  0  0  0  0  0  0  0  0  0  0  0
   -1.0209    2.4079    1.7511 C   0  0  0  0  0  0  0  0  0  0  0  0
   -0.4588    3.2810    2.4127 O   0  0  0  0  0  0  0  0  0  0  0  0
   -1.8427    1.4962    2.3732 N   0  0  0  0  0  0  0  0  0  0  0  0
   -2.3451    0.4472    1.6554 C   0  0  0  0  0  0  0  0  0  0  0  0
   -3.1949   -0.5186    2.0934 N   0  0  0  0  0  0  0  0  0  0  0  0
   -3.5075   -1.4089    1.1325 N   0  0  0  0  0  0  0  0  0  0  0  0
   -2.8005   -1.0062    0.0638 C   0  0  0  0  0  0  0  0  0  0  0  0
   -2.8636   -1.7739   -1.2035 C   0  0  0  0  0  0  0  0  0  0  0  0
   -2.0460    0.1573    0.3511 C   0  0  0  0  0  0  0  0  0  0  0  0
    0.5105   -0.3531   -1.8272 C   0  0  0  0  0  0  0  0  0  0  0  0
    1.6816   -1.0981   -1.9980 C   0  0  0  0  0  0  0  0  0  0  0  0
    5.1781   -0.9842    0.5167 H   0  0  0  0  0  0  0  0  0  0  0  0
    6.2682   -1.5286   -0.7692 H   0  0  0  0  0  0  0  0  0  0  0  0
    5.1856   -0.1540   -1.0646 H   0  0  0  0  0  0  0  0  0  0  0  0
    2.8534   -0.9720    1.1890 H   0  0  0  0  0  0  0  0  0  0  0  0
    0.8219    0.3325    1.4947 H   0  0  0  0  0  0  0  0  0  0  0  0
   -1.5292    1.1672   -1.4372 H   0  0  0  0  0  0  0  0  0  0  0  0
   -1.7163    3.0451   -0.1306 H   0  0  0  0  0  0  0  0  0  0  0  0
    0.0349    2.8204   -0.0759 H   0  0  0  0  0  0  0  0  0  0  0  0
   -1.9824    1.5948    3.3710 H   0  0  0  0  0  0  0  0  0  0  0  0
   -3.6120   -0.6326    3.0099 H   0  0  0  0  0  0  0  0  0  0  0  0
   -2.0265   -2.4766   -1.2623 H   0  0  0  0  0  0  0  0  0  0  0  0
   -3.7955   -2.3440   -1.2773 H   0  0  0  0  0  0  0  0  0  0  0  0
   -2.8141   -1.1038   -2.0676 H   0  0  0  0  0  0  0  0  0  0  0  0
   -0.1385   -0.2027   -2.6878 H   0  0  0  0  0  0  0  0  0  0  0  0
    1.9112   -1.5077   -2.9791 H   0  0  0  0  0  0  0  0  0  0  0  0
  1  2  1  0
  2  3  1  0
  3  4  2  0
  4  5  1  0
  5  6  2  0
  6  7  1  0
  7  8  1  0
  8  9  1  0
  9 10  2  0
  9 11  1  0
 11 12  1  0
 12 13  1  0
 13 14  1  0
 14 15  2  0
 15 16  1  0
 15 17  1  0
  6 18  1  0
 18 19  2  0
 19  3  1  0
 17  7  1  0
 17 12  2  0
  1 20  1  0
  1 21  1  0
  1 22  1  0
  4 23  1  0
  5 24  1  0
  7 25  1  0
  8 26  1  0
  8 27  1  0
 11 28  1  0
 13 29  1  0
 16 30  1  0
 16 31  1  0
 16 32  1  0
 18 33  1  0
 19 34  1  0
M  END
$$$$
