
     RDKit          3D

 43 45  0  0  0  0  0  0  0  0999 V2000
   -1.9460    2.7484    3.3431 C   0  0  0  0  0  0  0  0  0  0  0  0
   -2.6186    1.3968    3.1331 C   0  0  0  0  0  0  0  0  0  0  0  0
   -3.0415    1.2076    1.7548 N   0  0  0  0  0  0  0  0  0  0  0  0
   -4.2916    1.5953    1.4105 N   0  0  0  0  0  0  0  0  0  0  0  0
   -4.3295    1.3764    0.0973 C   0  0  0  0  0  0  0  0  0  0  0  0
   -3.1423    0.7937   -0.3839 C   0  0  0  0  0  0  0  0  0  0  0  0
   -2.8237    0.4499   -2.0138 Cl  0  0  0  0  0  0  0  0  0  0  0  0
   -2.3294    0.6423    0.7228 C   0  0  0  0  0  0  0  0  0  0  0  0
   -0.9848    0.1365    0.8378 C   0  0  0  0  0  0  0  0  0  0  0  0
   -0.1234    0.7485    1.4671 O   0  0  0  0  0  0  0  0  0  0  0  0
   -0.7071   -1.0854    0.2436 N   0  0  0  0  0  0  0  0  0  0  0  0
   -1.6697   -2.1551    0.0290 C   0  0  0  0  0  0  0  0  0  0  0  0
   -0.9010   -3.4130    0.4062 C   0  0  0  0  0  0  0  0  0  0  0  0
    0.5093   -3.1025   -0.0789 C   0  0  0  0  0  0  0  0  0  0  0  0
    0.6614   -1.6018    0.2232 C   0  0  0  0  0  0  0  0  0  0  0  0
    1.5261   -0.8801   -0.7919 C   0  0  0  0  0  0  0  0  0  0  0  0
    2.6995   -0.2303   -0.3870 C   0  0  0  0  0  0  0  0  0  0  0  0
    3.5035    0.4474   -1.3107 C   0  0  0  0  0  0  0  0  0  0  0  0
    3.1467    0.4874   -2.6563 C   0  0  0  0  0  0  0  0  0  0  0  0
    3.8503    1.1019   -3.6573 O   0  0  0  0  0  0  0  0  0  0  0  0
    4.8668    2.0114   -3.2479 C   0  0  0  0  0  0  0  0  0  0  0  0
    1.9833   -0.1573   -3.0719 C   0  0  0  0  0  0  0  0  0  0  0  0
    1.1732   -0.8243   -2.1486 C   0  0  0  0  0  0  0  0  0  0  0  0
   -1.7056    2.8958    4.4018 H   0  0  0  0  0  0  0  0  0  0  0  0
   -1.0129    2.8149    2.7667 H   0  0  0  0  0  0  0  0  0  0  0  0
   -2.5925    3.5710    3.0187 H   0  0  0  0  0  0  0  0  0  0  0  0
   -1.9505    0.5713    3.4054 H   0  0  0  0  0  0  0  0  0  0  0  0
   -3.5093    1.3227    3.7634 H   0  0  0  0  0  0  0  0  0  0  0  0
   -5.2168    1.6557   -0.4549 H   0  0  0  0  0  0  0  0  0  0  0  0
   -2.5755   -2.0302    0.6263 H   0  0  0  0  0  0  0  0  0  0  0  0
   -1.9227   -2.1735   -1.0360 H   0  0  0  0  0  0  0  0  0  0  0  0
   -1.3194   -4.3165   -0.0449 H   0  0  0  0  0  0  0  0  0  0  0  0
   -0.9008   -3.5383    1.4966 H   0  0  0  0  0  0  0  0  0  0  0  0
    1.2658   -3.7034    0.4339 H   0  0  0  0  0  0  0  0  0  0  0  0
    0.5824   -3.3286   -1.1490 H   0  0  0  0  0  0  0  0  0  0  0  0
    1.0748   -1.4833    1.2329 H   0  0  0  0  0  0  0  0  0  0  0  0
    2.9912   -0.2338    0.6622 H   0  0  0  0  0  0  0  0  0  0  0  0
    4.4038    0.9291   -0.9455 H   0  0  0  0  0  0  0  0  0  0  0  0
    5.2283    2.5407   -4.1388 H   0  0  0  0  0  0  0  0  0  0  0  0
    5.7179    1.4763   -2.8116 H   0  0  0  0  0  0  0  0  0  0  0  0
    4.4729    2.7649   -2.5530 H   0  0  0  0  0  0  0  0  0  0  0  0
    1.6970   -0.1325   -4.1217 H   0  0  0  0  0  0  0  0  0  0  0  0
    0.2605   -1.2958   -2.5014 H   0  0  0  0  0  0  0  0  0  0  0  0
  1  2  1  0
  2  3  1  0
  3  4  1  0
  4  5  2  0
  5  6  1  0
  6  7  1  0
  6  8  2  0
  8  9  1  0
  9 10  2  0
  9 11  1  0
 11 12  1  0
 12 13  1  0
 13 14  1  0
 14 15  1  0
 15 16  1  0
 16 17  2  0
 17 18  1  0
 18 19  2  0
 19 20  1  0
 20 21  1  0
 19 22  1  0
 22 23  2  0
  8  3  1  0
 15 11  1  0
 23 16  1  0
  1 24  1  0
  1 25  1  0
  1 26  1  0
  2 27  1  0
  2 28  1  0
  5 29  1  0
 12 30  1  0
 12 31  1  0
 13 32  1  0
 13 33  1  0
 14 34  1  0
 14 35  1  0
 15 36  1  0
 17 37  1  0
 18 38  1  0
 21 39  1  0
 21 40  1  0
 21 41  1  0
 22 42  1  0
 23 43  1  0
M  END
$$$$
