
     RDKit          3D

 42 43  0  0  0  0  0  0  0  0999 V2000
    6.2222   -0.6103    0.4998 C   0  0  0  0  0  0  0  0  0  0  0  0
    5.2708   -2.0928    0.0806 S   0  0  0  0  0  0  0  0  0  0  0  0
    4.4028   -1.4960   -1.4084 C   0  0  0  0  0  0  0  0  0  0  0  0
    2.9277   -1.1732   -1.1601 C   0  0  0  0  0  0  0  0  0  0  0  0
    2.6464    0.0309   -0.2463 C   0  0  1  0  0  0  0  0  0  0  0  0
    3.1533    1.3640   -0.8295 C   0  0  0  0  0  0  0  0  0  0  0  0
    2.9382    2.4185    0.1101 O   0  0  0  0  0  0  0  0  0  0  0  0
    1.2213    0.1083    0.1081 N   0  0  0  0  0  0  0  0  0  0  0  0
    0.2006    0.3071   -0.7871 C   0  0  0  0  0  0  0  0  0  0  0  0
    0.3913    0.5291   -1.9792 O   0  0  0  0  0  0  0  0  0  0  0  0
   -1.1749    0.2393   -0.2145 C   0  0  0  0  0  0  0  0  0  0  0  0
   -2.2218    0.4274   -1.0317 C   0  0  0  0  0  0  0  0  0  0  0  0
   -3.5622    0.4002   -0.6800 N   0  0  0  0  0  0  0  0  0  0  0  0
   -4.6193    0.6212   -1.6714 C   0  0  0  0  0  0  0  0  0  0  0  0
   -3.9268    0.1495    0.6637 C   0  0  0  0  0  0  0  0  0  0  0  0
   -5.2534    0.0949    1.1371 C   0  0  0  0  0  0  0  0  0  0  0  0
   -6.2916    0.2849    0.3086 F   0  0  0  0  0  0  0  0  0  0  0  0
   -5.5583   -0.1562    2.4741 C   0  0  0  0  0  0  0  0  0  0  0  0
   -4.5307   -0.3606    3.3782 C   0  0  0  0  0  0  0  0  0  0  0  0
   -4.8193   -0.6019    4.6626 F   0  0  0  0  0  0  0  0  0  0  0  0
   -3.2078   -0.3185    2.9698 C   0  0  0  0  0  0  0  0  0  0  0  0
   -2.9113   -0.0652    1.6222 C   0  0  0  0  0  0  0  0  0  0  0  0
   -1.4859   -0.0247    1.2097 C   0  0  0  0  0  0  0  0  0  0  0  0
   -0.5943   -0.2058    2.0361 O   0  0  0  0  0  0  0  0  0  0  0  0
    5.5591    0.2161    0.7631 H   0  0  0  0  0  0  0  0  0  0  0  0
    6.8639   -0.3191   -0.3358 H   0  0  0  0  0  0  0  0  0  0  0  0
    6.8575   -0.8278    1.3626 H   0  0  0  0  0  0  0  0  0  0  0  0
    4.9355   -0.6520   -1.8557 H   0  0  0  0  0  0  0  0  0  0  0  0
    4.4531   -2.3118   -2.1383 H   0  0  0  0  0  0  0  0  0  0  0  0
    2.4289   -2.0629   -0.7518 H   0  0  0  0  0  0  0  0  0  0  0  0
    2.4608   -1.0002   -2.1380 H   0  0  0  0  0  0  0  0  0  0  0  0
    3.1375   -0.1211    0.7215 H   0  0  0  0  0  0  0  0  0  0  0  0
    4.2272    1.3294   -1.0286 H   0  0  0  0  0  0  0  0  0  0  0  0
    2.6498    1.6312   -1.7628 H   0  0  0  0  0  0  0  0  0  0  0  0
    1.9937    2.3708    0.3462 H   0  0  0  0  0  0  0  0  0  0  0  0
    0.9683   -0.1214    1.0718 H   0  0  0  0  0  0  0  0  0  0  0  0
   -2.0570    0.6252   -2.0904 H   0  0  0  0  0  0  0  0  0  0  0  0
   -4.2016    0.8038   -2.6686 H   0  0  0  0  0  0  0  0  0  0  0  0
   -5.2651   -0.2593   -1.7584 H   0  0  0  0  0  0  0  0  0  0  0  0
   -5.2175    1.5027   -1.4162 H   0  0  0  0  0  0  0  0  0  0  0  0
   -6.5915   -0.1908    2.8017 H   0  0  0  0  0  0  0  0  0  0  0  0
   -2.4194   -0.4826    3.6998 H   0  0  0  0  0  0  0  0  0  0  0  0
  1  2  1  0
  2  3  1  0
  3  4  1  0
  4  5  1  0
  5  6  1  0
  6  7  1  0
  5  8  1  0
  8  9  1  0
  9 10  2  0
  9 11  1  0
 11 12  2  0
 12 13  1  0
 13 14  1  0
 13 15  1  0
 15 16  2  0
 16 17  1  0
 16 18  1  0
 18 19  2  0
 19 20  1  0
 19 21  1  0
 21 22  2  0
 22 23  1  0
 23 24  2  0
 23 11  1  0
 22 15  1  0
  1 25  1  0
  1 26  1  0
  1 27  1  0
  3 28  1  0
  3 29  1  0
  4 30  1  0
  4 31  1  0
  5 32  1  1
  6 33  1  0
  6 34  1  0
  7 35  1  0
  8 36  1  0
 12 37  1  0
 14 38  1  0
 14 39  1  0
 14 40  1  0
 18 41  1  0
 21 42  1  0
M  END
$$$$
