
     RDKit          3D

 55 58  0  0  0  0  0  0  0  0999 V2000
   -7.2701    0.2831    1.7548 C   0  0  0  0  0  0  0  0  0  0  0  0
   -6.8255   -0.4628    0.6306 O   0  0  0  0  0  0  0  0  0  0  0  0
   -5.5776   -0.1842    0.1384 C   0  0  0  0  0  0  0  0  0  0  0  0
   -4.6822    0.7395    0.6869 C   0  0  0  0  0  0  0  0  0  0  0  0
   -3.4110    0.9495    0.1179 C   0  0  0  0  0  0  0  0  0  0  0  0
   -3.0443    0.2406   -1.0318 C   0  0  0  0  0  0  0  0  0  0  0  0
   -3.9406   -0.6850   -1.5872 C   0  0  0  0  0  0  0  0  0  0  0  0
   -5.1852   -0.9078   -0.9940 C   0  0  0  0  0  0  0  0  0  0  0  0
   -6.0721   -1.7863   -1.5661 O   0  0  0  0  0  0  0  0  0  0  0  0
   -5.5971   -3.1298   -1.4780 C   0  0  0  0  0  0  0  0  0  0  0  0
   -1.7262    0.5016   -1.6990 C   0  0  0  0  0  0  0  0  0  0  0  0
   -0.5246    0.1908   -0.8306 C   0  0  0  0  0  0  0  0  0  0  0  0
    0.3093   -0.6432   -1.2091 O   0  0  0  0  0  0  0  0  0  0  0  0
   -0.3125    0.9731    0.3049 N   0  0  0  0  0  0  0  0  0  0  0  0
    1.0016    0.8464    0.9526 C   0  0  0  0  0  0  0  0  0  0  0  0
    2.0510    1.6932    0.2333 C   0  0  0  0  0  0  0  0  0  0  0  0
    2.4438    2.7700    0.6739 O   0  0  0  0  0  0  0  0  0  0  0  0
    2.4883    1.1537   -0.9591 N   0  0  0  0  0  0  0  0  0  0  0  0
    3.5891    1.7175   -1.7142 C   0  0  0  0  0  0  0  0  0  0  0  0
    4.8197    0.8096   -1.7265 C   0  0  0  0  0  0  0  0  0  0  0  0
    5.3532    0.5400   -0.4068 N   0  0  0  0  0  0  0  0  0  0  0  0
    6.2289    1.3448    0.2679 C   0  0  0  0  0  0  0  0  0  0  0  0
    6.5692    0.8293    1.4272 N   0  0  0  0  0  0  0  0  0  0  0  0
    5.8719   -0.3505    1.5146 C   0  0  0  0  0  0  0  0  0  0  0  0
    5.8510   -1.2990    2.5483 C   0  0  0  0  0  0  0  0  0  0  0  0
    5.0479   -2.4370    2.4054 C   0  0  0  0  0  0  0  0  0  0  0  0
    4.2810   -2.6282    1.2552 C   0  0  0  0  0  0  0  0  0  0  0  0
    4.2898   -1.6949    0.2114 C   0  0  0  0  0  0  0  0  0  0  0  0
    5.0991   -0.5631    0.3743 C   0  0  0  0  0  0  0  0  0  0  0  0
   -1.1898    1.9001    0.8427 C   0  0  0  0  0  0  0  0  0  0  0  0
   -2.5261    1.9398    0.7448 C   0  0  0  0  0  0  0  0  0  0  0  0
   -7.3135    1.3538    1.5284 H   0  0  0  0  0  0  0  0  0  0  0  0
   -6.6423    0.0886    2.6303 H   0  0  0  0  0  0  0  0  0  0  0  0
   -8.2856   -0.0467    1.9949 H   0  0  0  0  0  0  0  0  0  0  0  0
   -4.9507    1.3041    1.5744 H   0  0  0  0  0  0  0  0  0  0  0  0
   -3.6807   -1.2214   -2.4965 H   0  0  0  0  0  0  0  0  0  0  0  0
   -6.4447   -3.7965   -1.6649 H   0  0  0  0  0  0  0  0  0  0  0  0
   -4.8406   -3.3226   -2.2475 H   0  0  0  0  0  0  0  0  0  0  0  0
   -5.1984   -3.3607   -0.4822 H   0  0  0  0  0  0  0  0  0  0  0  0
   -1.6690    1.5435   -2.0393 H   0  0  0  0  0  0  0  0  0  0  0  0
   -1.6378   -0.1106   -2.6060 H   0  0  0  0  0  0  0  0  0  0  0  0
    1.3235   -0.2017    0.9512 H   0  0  0  0  0  0  0  0  0  0  0  0
    0.9461    1.1579    2.0022 H   0  0  0  0  0  0  0  0  0  0  0  0
    2.0390    0.2946   -1.2798 H   0  0  0  0  0  0  0  0  0  0  0  0
    3.8511    2.7037   -1.3155 H   0  0  0  0  0  0  0  0  0  0  0  0
    3.2293    1.8569   -2.7394 H   0  0  0  0  0  0  0  0  0  0  0  0
    5.6212    1.2708   -2.3154 H   0  0  0  0  0  0  0  0  0  0  0  0
    4.5855   -0.1517   -2.1972 H   0  0  0  0  0  0  0  0  0  0  0  0
    6.5842    2.2886   -0.1259 H   0  0  0  0  0  0  0  0  0  0  0  0
    6.4513   -1.1425    3.4381 H   0  0  0  0  0  0  0  0  0  0  0  0
    5.0259   -3.1784    3.2008 H   0  0  0  0  0  0  0  0  0  0  0  0
    3.6649   -3.5210    1.1659 H   0  0  0  0  0  0  0  0  0  0  0  0
    3.6886   -1.8524   -0.6778 H   0  0  0  0  0  0  0  0  0  0  0  0
   -0.7181    2.6495    1.4815 H   0  0  0  0  0  0  0  0  0  0  0  0
   -3.0391    2.7435    1.2720 H   0  0  0  0  0  0  0  0  0  0  0  0
  1  2  1  0
  2  3  1  0
  3  4  2  0
  4  5  1  0
  5  6  2  0
  6  7  1  0
  7  8  2  0
  8  9  1  0
  9 10  1  0
  6 11  1  0
 11 12  1  0
 12 13  2  0
 12 14  1  0
 14 15  1  0
 15 16  1  0
 16 17  2  0
 16 18  1  0
 18 19  1  0
 19 20  1  0
 20 21  1  0
 21 22  1  0
 22 23  2  0
 23 24  1  0
 24 25  2  0
 25 26  1  0
 26 27  2  0
 27 28  1  0
 28 29  2  0
 14 30  1  0
 30 31  2  0
  8  3  1  0
 29 21  1  0
 31  5  1  0
 29 24  1  0
  1 32  1  0
  1 33  1  0
  1 34  1  0
  4 35  1  0
  7 36  1  0
 10 37  1  0
 10 38  1  0
 10 39  1  0
 11 40  1  0
 11 41  1  0
 15 42  1  0
 15 43  1  0
 18 44  1  0
 19 45  1  0
 19 46  1  0
 20 47  1  0
 20 48  1  0
 22 49  1  0
 25 50  1  0
 26 51  1  0
 27 52  1  0
 28 53  1  0
 30 54  1  0
 31 55  1  0
M  END
$$$$
