
     RDKit          3D

 54 55  0  0  0  0  0  0  0  0999 V2000
    5.2199   -0.5086   -2.2477 C   0  0  0  0  0  0  0  0  0  0  0  0
    4.3206    0.4208   -1.4489 C   0  0  0  0  0  0  0  0  0  0  0  0
    4.3599    0.1085   -0.0191 N   0  0  0  0  0  0  0  0  0  0  0  0
    5.3317    0.8513    0.7840 C   0  0  0  0  0  0  0  0  0  0  0  0
    4.7502    2.1504    1.3203 C   0  0  0  0  0  0  0  0  0  0  0  0
    3.4992   -0.7609    0.6431 C   0  0  0  0  0  0  0  0  0  0  0  0
    3.5681   -0.9245    1.8678 O   0  0  0  0  0  0  0  0  0  0  0  0
    2.4620   -1.5555   -0.1528 C   0  0  0  0  0  0  0  0  0  0  0  0
    1.0501   -1.2018    0.1526 N   0  0  0  0  0  0  0  0  0  0  0  0
    0.5780   -1.6823    1.4763 C   0  0  0  0  0  0  0  0  0  0  0  0
   -0.1491   -0.6154    2.2799 C   0  0  0  0  0  0  0  0  0  0  0  0
   -1.3247   -0.0222    1.5105 C   0  0  0  0  0  0  0  0  0  0  0  0
   -1.0246    0.2546    0.0814 N   0  0  0  0  0  0  0  0  0  0  0  0
   -1.8797   -0.4962   -0.8741 C   0  0  0  0  0  0  0  0  0  0  0  0
   -3.3560   -0.1450   -0.7649 C   0  0  0  0  0  0  0  0  0  0  0  0
   -3.7225    1.2151   -0.8211 C   0  0  0  0  0  0  0  0  0  0  0  0
   -5.0611    1.6161   -0.7500 C   0  0  0  0  0  0  0  0  0  0  0  0
   -5.4238    3.0710   -0.7719 C   0  0  0  0  0  0  0  0  0  0  0  0
   -6.0492    0.6420   -0.6036 C   0  0  0  0  0  0  0  0  0  0  0  0
   -5.7063   -0.7104   -0.5577 C   0  0  0  0  0  0  0  0  0  0  0  0
   -4.3663   -1.1214   -0.6433 C   0  0  0  0  0  0  0  0  0  0  0  0
   -4.0568   -2.5924   -0.5980 C   0  0  0  0  0  0  0  0  0  0  0  0
    0.6003    0.3443   -0.3314 S   0  0  0  0  0  6  0  0  0  0  0  0
    1.2465    1.3105    0.5218 O   0  0  0  0  0  0  0  0  0  0  0  0
    0.7390    0.4176   -1.7664 O   0  0  0  0  0  0  0  0  0  0  0  0
    6.2618   -0.4229   -1.9219 H   0  0  0  0  0  0  0  0  0  0  0  0
    5.1736   -0.2598   -3.3123 H   0  0  0  0  0  0  0  0  0  0  0  0
    4.9196   -1.5542   -2.1265 H   0  0  0  0  0  0  0  0  0  0  0  0
    3.2991    0.3548   -1.8223 H   0  0  0  0  0  0  0  0  0  0  0  0
    4.6344    1.4608   -1.5925 H   0  0  0  0  0  0  0  0  0  0  0  0
    5.6620    0.2309    1.6247 H   0  0  0  0  0  0  0  0  0  0  0  0
    6.2177    1.0528    0.1716 H   0  0  0  0  0  0  0  0  0  0  0  0
    5.5000    2.6874    1.9093 H   0  0  0  0  0  0  0  0  0  0  0  0
    4.4234    2.8035    0.5049 H   0  0  0  0  0  0  0  0  0  0  0  0
    3.8840    1.9601    1.9621 H   0  0  0  0  0  0  0  0  0  0  0  0
    2.6201   -2.6141    0.0932 H   0  0  0  0  0  0  0  0  0  0  0  0
    2.6209   -1.5087   -1.2311 H   0  0  0  0  0  0  0  0  0  0  0  0
    1.3974   -2.0846    2.0792 H   0  0  0  0  0  0  0  0  0  0  0  0
   -0.1059   -2.5194    1.2877 H   0  0  0  0  0  0  0  0  0  0  0  0
    0.5500    0.1736    2.5795 H   0  0  0  0  0  0  0  0  0  0  0  0
   -0.5185   -1.0497    3.2168 H   0  0  0  0  0  0  0  0  0  0  0  0
   -2.1646   -0.7209    1.5981 H   0  0  0  0  0  0  0  0  0  0  0  0
   -1.6405    0.9140    1.9843 H   0  0  0  0  0  0  0  0  0  0  0  0
   -1.7090   -1.5666   -0.7232 H   0  0  0  0  0  0  0  0  0  0  0  0
   -1.5964   -0.2715   -1.9088 H   0  0  0  0  0  0  0  0  0  0  0  0
   -2.9419    1.9699   -0.9191 H   0  0  0  0  0  0  0  0  0  0  0  0
   -4.6674    3.6576   -1.3039 H   0  0  0  0  0  0  0  0  0  0  0  0
   -5.5081    3.4509    0.2509 H   0  0  0  0  0  0  0  0  0  0  0  0
   -6.3768    3.2256   -1.2890 H   0  0  0  0  0  0  0  0  0  0  0  0
   -7.0957    0.9284   -0.5291 H   0  0  0  0  0  0  0  0  0  0  0  0
   -6.5018   -1.4459   -0.4550 H   0  0  0  0  0  0  0  0  0  0  0  0
   -3.4348   -2.8226    0.2727 H   0  0  0  0  0  0  0  0  0  0  0  0
   -4.9678   -3.1947   -0.5175 H   0  0  0  0  0  0  0  0  0  0  0  0
   -3.5404   -2.9005   -1.5126 H   0  0  0  0  0  0  0  0  0  0  0  0
  1  2  1  0
  2  3  1  0
  3  4  1  0
  4  5  1  0
  3  6  1  0
  6  7  2  0
  6  8  1  0
  8  9  1  0
  9 10  1  0
 10 11  1  0
 11 12  1  0
 12 13  1  0
 13 14  1  0
 14 15  1  0
 15 16  2  0
 16 17  1  0
 17 18  1  0
 17 19  2  0
 19 20  1  0
 20 21  2  0
 21 22  1  0
 13 23  1  0
 23 24  2  0
 23 25  2  0
 23  9  1  0
 21 15  1  0
  1 26  1  0
  1 27  1  0
  1 28  1  0
  2 29  1  0
  2 30  1  0
  4 31  1  0
  4 32  1  0
  5 33  1  0
  5 34  1  0
  5 35  1  0
  8 36  1  0
  8 37  1  0
 10 38  1  0
 10 39  1  0
 11 40  1  0
 11 41  1  0
 12 42  1  0
 12 43  1  0
 14 44  1  0
 14 45  1  0
 16 46  1  0
 18 47  1  0
 18 48  1  0
 18 49  1  0
 19 50  1  0
 20 51  1  0
 22 52  1  0
 22 53  1  0
 22 54  1  0
M  END
$$$$
