
     RDKit          3D

 45 47  0  0  0  0  0  0  0  0999 V2000
    2.2164   -2.1726   -2.1853 C   0  0  0  0  0  0  0  0  0  0  0  0
    2.0153   -0.8427   -1.7056 O   0  0  0  0  0  0  0  0  0  0  0  0
    3.0828   -0.3699   -0.9768 C   0  0  0  0  0  0  0  0  0  0  0  0
    4.3629   -0.3599   -1.5460 C   0  0  0  0  0  0  0  0  0  0  0  0
    5.4262    0.2454   -0.8792 C   0  0  0  0  0  0  0  0  0  0  0  0
    5.2151    0.8826    0.3444 C   0  0  0  0  0  0  0  0  0  0  0  0
    6.3616    1.5195    1.0742 C   0  0  0  0  0  0  0  0  0  0  0  0
    3.9287    0.8760    0.9097 C   0  0  0  0  0  0  0  0  0  0  0  0
    2.8454    0.2407    0.2747 C   0  0  0  0  0  0  0  0  0  0  0  0
    1.5264    0.2610    0.8564 N   0  0  0  0  0  0  0  0  0  0  0  0
    1.2546    1.1762    1.9569 C   0  0  0  0  0  0  0  0  0  0  0  0
    0.6904   -0.8660    0.7184 C   0  0  0  0  0  0  0  0  0  0  0  0
    1.1377   -2.0146    0.7457 O   0  0  0  0  0  0  0  0  0  0  0  0
   -0.7348   -0.5814    0.5560 C   0  0  0  0  0  0  0  0  0  0  0  0
   -1.3583    0.5553    0.0671 C   0  0  0  0  0  0  0  0  0  0  0  0
   -2.7810    0.4316    0.0526 C   0  0  0  0  0  0  0  0  0  0  0  0
   -3.7686    1.3942   -0.3688 C   0  0  0  0  0  0  0  0  0  0  0  0
   -3.4414    2.5123   -0.7558 O   0  0  0  0  0  0  0  0  0  0  0  0
   -5.0839    0.9400   -0.2819 N   0  0  0  0  0  0  0  0  0  0  0  0
   -6.1404    1.8452   -0.6929 C   0  0  0  0  0  0  0  0  0  0  0  0
   -5.4937   -0.3131    0.1996 C   0  0  0  0  0  0  0  0  0  0  0  0
   -6.6923   -0.6030    0.2622 O   0  0  0  0  0  0  0  0  0  0  0  0
   -4.4979   -1.2096    0.6049 N   0  0  0  0  0  0  0  0  0  0  0  0
   -4.8979   -2.5232    1.0969 C   0  0  0  0  0  0  0  0  0  0  0  0
   -3.1815   -0.7916    0.5070 C   0  0  0  0  0  0  0  0  0  0  0  0
   -1.8900   -1.7896    0.9528 S   0  0  0  0  0  0  0  0  0  0  0  0
    1.2317   -2.6128   -2.3690 H   0  0  0  0  0  0  0  0  0  0  0  0
    2.7377   -2.8038   -1.4563 H   0  0  0  0  0  0  0  0  0  0  0  0
    2.7585   -2.1558   -3.1359 H   0  0  0  0  0  0  0  0  0  0  0  0
    4.5377   -0.7926   -2.5263 H   0  0  0  0  0  0  0  0  0  0  0  0
    6.4145    0.2354   -1.3333 H   0  0  0  0  0  0  0  0  0  0  0  0
    6.8394    0.7870    1.7318 H   0  0  0  0  0  0  0  0  0  0  0  0
    6.0191    2.3670    1.6771 H   0  0  0  0  0  0  0  0  0  0  0  0
    7.1073    1.9037    0.3704 H   0  0  0  0  0  0  0  0  0  0  0  0
    3.8031    1.3599    1.8735 H   0  0  0  0  0  0  0  0  0  0  0  0
    0.2045    1.1537    2.2589 H   0  0  0  0  0  0  0  0  0  0  0  0
    1.5088    2.1982    1.6600 H   0  0  0  0  0  0  0  0  0  0  0  0
    1.8363    0.8712    2.8331 H   0  0  0  0  0  0  0  0  0  0  0  0
   -0.8230    1.4343   -0.2764 H   0  0  0  0  0  0  0  0  0  0  0  0
   -6.7657    2.0751    0.1762 H   0  0  0  0  0  0  0  0  0  0  0  0
   -6.7635    1.3519   -1.4463 H   0  0  0  0  0  0  0  0  0  0  0  0
   -5.7568    2.7792   -1.1109 H   0  0  0  0  0  0  0  0  0  0  0  0
   -5.9837   -2.6497    1.1009 H   0  0  0  0  0  0  0  0  0  0  0  0
   -4.5384   -2.6490    2.1229 H   0  0  0  0  0  0  0  0  0  0  0  0
   -4.4694   -3.2954    0.4503 H   0  0  0  0  0  0  0  0  0  0  0  0
  1  2  1  0
  2  3  1  0
  3  4  2  0
  4  5  1  0
  5  6  2  0
  6  7  1  0
  6  8  1  0
  8  9  2  0
  9 10  1  0
 10 11  1  0
 10 12  1  0
 12 13  2  0
 12 14  1  0
 14 15  2  0
 15 16  1  0
 16 17  1  0
 17 18  2  0
 17 19  1  0
 19 20  1  0
 19 21  1  0
 21 22  2  0
 21 23  1  0
 23 24  1  0
 23 25  1  0
 25 26  1  0
  9  3  1  0
 26 14  1  0
 25 16  2  0
  1 27  1  0
  1 28  1  0
  1 29  1  0
  4 30  1  0
  5 31  1  0
  7 32  1  0
  7 33  1  0
  7 34  1  0
  8 35  1  0
 11 36  1  0
 11 37  1  0
 11 38  1  0
 15 39  1  0
 20 40  1  0
 20 41  1  0
 20 42  1  0
 24 43  1  0
 24 44  1  0
 24 45  1  0
M  END
$$$$
