
     RDKit          3D

 35 37  0  0  0  0  0  0  0  0999 V2000
   -5.3207    1.9198    0.5395 C   0  0  0  0  0  0  0  0  0  0  0  0
   -4.2474    0.9684    0.3217 N   0  0  0  0  0  0  0  0  0  0  0  0
   -2.9369    1.4292    0.4316 C   0  0  0  0  0  0  0  0  0  0  0  0
   -2.6210    2.5850    0.6977 O   0  0  0  0  0  0  0  0  0  0  0  0
   -1.9322    0.4204    0.2005 C   0  0  0  0  0  0  0  0  0  0  0  0
   -0.5077    0.5502    0.2407 C   0  0  0  0  0  0  0  0  0  0  0  0
    0.1432   -0.6422   -0.0386 C   0  0  0  0  0  0  0  0  0  0  0  0
    1.5704   -0.9677   -0.1070 C   0  0  0  0  0  0  0  0  0  0  0  0
    1.9789   -2.1212   -0.2063 O   0  0  0  0  0  0  0  0  0  0  0  0
    2.4088    0.1350   -0.0599 N   0  0  0  0  0  0  0  0  0  0  0  0
    3.8228    0.1545   -0.0861 C   0  0  0  0  0  0  0  0  0  0  0  0
    4.6364   -0.9769   -0.1294 C   0  0  0  0  0  0  0  0  0  0  0  0
    6.0238   -0.8278   -0.1494 C   0  0  0  0  0  0  0  0  0  0  0  0
    6.8005   -1.9182   -0.1908 F   0  0  0  0  0  0  0  0  0  0  0  0
    6.6225    0.4289   -0.1262 C   0  0  0  0  0  0  0  0  0  0  0  0
    5.8206    1.5651   -0.0813 C   0  0  0  0  0  0  0  0  0  0  0  0
    4.4357    1.4177   -0.0613 C   0  0  0  0  0  0  0  0  0  0  0  0
    3.6678    2.5185   -0.0171 F   0  0  0  0  0  0  0  0  0  0  0  0
   -1.0040   -1.8970   -0.3314 S   0  0  0  0  0  0  0  0  0  0  0  0
   -2.3130   -0.8542   -0.0990 C   0  0  0  0  0  0  0  0  0  0  0  0
   -3.6238   -1.2860   -0.2077 N   0  0  0  0  0  0  0  0  0  0  0  0
   -4.0026   -2.6573   -0.5308 C   0  0  0  0  0  0  0  0  0  0  0  0
   -4.6365   -0.3435    0.0077 C   0  0  0  0  0  0  0  0  0  0  0  0
   -5.8312   -0.6440   -0.0733 O   0  0  0  0  0  0  0  0  0  0  0  0
   -5.9610    1.5564    1.3501 H   0  0  0  0  0  0  0  0  0  0  0  0
   -4.9549    2.9164    0.7987 H   0  0  0  0  0  0  0  0  0  0  0  0
   -5.9233    1.9895   -0.3722 H   0  0  0  0  0  0  0  0  0  0  0  0
   -0.0163    1.4868    0.4765 H   0  0  0  0  0  0  0  0  0  0  0  0
    1.9851    1.0541   -0.0321 H   0  0  0  0  0  0  0  0  0  0  0  0
    4.2399   -1.9855   -0.1471 H   0  0  0  0  0  0  0  0  0  0  0  0
    7.7051    0.5091   -0.1426 H   0  0  0  0  0  0  0  0  0  0  0  0
    6.2597    2.5573   -0.0617 H   0  0  0  0  0  0  0  0  0  0  0  0
   -3.5948   -2.9222   -1.5114 H   0  0  0  0  0  0  0  0  0  0  0  0
   -5.0873   -2.7882   -0.5688 H   0  0  0  0  0  0  0  0  0  0  0  0
   -3.6068   -3.3306    0.2359 H   0  0  0  0  0  0  0  0  0  0  0  0
  1  2  1  0
  2  3  1  0
  3  4  2  0
  3  5  1  0
  5  6  1  0
  6  7  2  0
  7  8  1  0
  8  9  2  0
  8 10  1  0
 10 11  1  0
 11 12  2  0
 12 13  1  0
 13 14  1  0
 13 15  2  0
 15 16  1  0
 16 17  2  0
 17 18  1  0
  7 19  1  0
 19 20  1  0
 20 21  1  0
 21 22  1  0
 21 23  1  0
 23 24  2  0
 23  2  1  0
 20  5  2  0
 17 11  1  0
  1 25  1  0
  1 26  1  0
  1 27  1  0
  6 28  1  0
 10 29  1  0
 12 30  1  0
 15 31  1  0
 16 32  1  0
 22 33  1  0
 22 34  1  0
 22 35  1  0
M  END
$$$$
