
     RDKit          3D

 35 36  0  0  0  0  0  0  0  0999 V2000
    5.2660    0.0608    2.0315 C   0  0  0  0  0  0  0  0  0  0  0  0
    4.4515   -0.2984    0.8469 C   0  0  0  0  0  0  0  0  0  0  0  0
    4.7691   -1.2082   -0.1869 C   0  0  0  0  0  0  0  0  0  0  0  0
    3.6892   -1.1744   -1.0359 C   0  0  0  0  0  0  0  0  0  0  0  0
    2.8122   -0.2793   -0.4948 N   0  0  0  0  0  0  0  0  0  0  0  0
    1.5068    0.0999   -1.0368 C   0  0  0  0  0  0  0  0  0  0  0  0
    1.5729    1.5145   -1.6190 C   0  0  0  0  0  0  0  0  0  0  0  0
    0.4209   -0.0367    0.0372 C   0  0  0  0  0  0  0  0  0  0  0  0
   -0.9742   -0.0725   -0.5531 C   0  0  0  0  0  0  0  0  0  0  0  0
   -1.1692   -0.1632   -1.7595 O   0  0  0  0  0  0  0  0  0  0  0  0
   -1.9442   -0.0195    0.4304 N   0  0  0  0  0  0  0  0  0  0  0  0
   -3.3463   -0.0375    0.2648 C   0  0  0  0  0  0  0  0  0  0  0  0
   -3.9966   -0.1097   -0.9672 C   0  0  0  0  0  0  0  0  0  0  0  0
   -5.3963   -0.1209   -1.0257 C   0  0  0  0  0  0  0  0  0  0  0  0
   -6.1560   -0.0600    0.1433 C   0  0  0  0  0  0  0  0  0  0  0  0
   -5.5174    0.0126    1.3781 C   0  0  0  0  0  0  0  0  0  0  0  0
   -4.1264    0.0233    1.4276 C   0  0  0  0  0  0  0  0  0  0  0  0
   -3.5210    0.0936    2.6246 F   0  0  0  0  0  0  0  0  0  0  0  0
    3.2511    0.2637    0.6582 N   0  0  0  0  0  0  0  0  0  0  0  0
    6.2157   -0.4837    2.0375 H   0  0  0  0  0  0  0  0  0  0  0  0
    4.7301   -0.1832    2.9544 H   0  0  0  0  0  0  0  0  0  0  0  0
    5.4900    1.1323    2.0330 H   0  0  0  0  0  0  0  0  0  0  0  0
    5.6639   -1.8042   -0.2967 H   0  0  0  0  0  0  0  0  0  0  0  0
    3.4797   -1.6964   -1.9590 H   0  0  0  0  0  0  0  0  0  0  0  0
    1.3095   -0.6035   -1.8560 H   0  0  0  0  0  0  0  0  0  0  0  0
    1.7837    2.2586   -0.8427 H   0  0  0  0  0  0  0  0  0  0  0  0
    2.3680    1.5890   -2.3695 H   0  0  0  0  0  0  0  0  0  0  0  0
    0.6315    1.7915   -2.1032 H   0  0  0  0  0  0  0  0  0  0  0  0
    0.5559   -0.9739    0.5932 H   0  0  0  0  0  0  0  0  0  0  0  0
    0.4837    0.7895    0.7566 H   0  0  0  0  0  0  0  0  0  0  0  0
   -1.6333    0.0396    1.3963 H   0  0  0  0  0  0  0  0  0  0  0  0
   -3.4473   -0.1581   -1.9022 H   0  0  0  0  0  0  0  0  0  0  0  0
   -5.8919   -0.1775   -1.9927 H   0  0  0  0  0  0  0  0  0  0  0  0
   -7.2417   -0.0691    0.0886 H   0  0  0  0  0  0  0  0  0  0  0  0
   -6.0898    0.0610    2.2986 H   0  0  0  0  0  0  0  0  0  0  0  0
  1  2  1  0
  2  3  1  0
  3  4  2  0
  4  5  1  0
  5  6  1  0
  6  7  1  0
  6  8  1  0
  8  9  1  0
  9 10  2  0
  9 11  1  0
 11 12  1  0
 12 13  2  0
 13 14  1  0
 14 15  2  0
 15 16  1  0
 16 17  2  0
 17 18  1  0
  5 19  1  0
 19  2  2  0
 17 12  1  0
  1 20  1  0
  1 21  1  0
  1 22  1  0
  3 23  1  0
  4 24  1  0
  6 25  1  0
  7 26  1  0
  7 27  1  0
  7 28  1  0
  8 29  1  0
  8 30  1  0
 11 31  1  0
 13 32  1  0
 14 33  1  0
 15 34  1  0
 16 35  1  0
M  END
$$$$
