
     RDKit          3D

 47 49  0  0  0  0  0  0  0  0999 V2000
   -6.5913   -1.0783    1.0942 C   0  0  0  0  0  0  0  0  0  0  0  0
   -6.5945    0.1644    0.2077 C   0  0  0  0  0  0  0  0  0  0  0  0
   -5.2869    0.7231   -0.1369 N   0  0  0  0  0  0  0  0  0  0  0  0
   -4.5262   -0.1025   -1.0925 C   0  0  0  0  0  0  0  0  0  0  0  0
   -3.0254    0.2602   -1.1537 C   0  0  0  0  0  0  0  0  0  0  0  0
   -2.4063    0.0588    0.1569 N   0  0  0  0  0  0  0  0  0  0  0  0
   -1.0447    0.2308    0.2610 C   0  0  0  0  0  0  0  0  0  0  0  0
   -0.4745    0.2072    1.4768 N   0  0  0  0  0  0  0  0  0  0  0  0
    0.8666    0.3434    1.5460 C   0  0  0  0  0  0  0  0  0  0  0  0
    1.6728    0.4785    0.4419 C   0  0  0  0  0  0  0  0  0  0  0  0
    3.1267    0.5843    0.6267 C   0  0  0  0  0  0  0  0  0  0  0  0
    3.5410    1.4440    1.3921 O   0  0  0  0  0  0  0  0  0  0  0  0
    3.8641   -0.3575   -0.0655 N   0  0  0  0  0  0  0  0  0  0  0  0
    5.2689   -0.4781   -0.1051 C   0  0  0  0  0  0  0  0  0  0  0  0
    6.1464    0.4150    0.5144 C   0  0  0  0  0  0  0  0  0  0  0  0
    7.5309    0.2293    0.4227 C   0  0  0  0  0  0  0  0  0  0  0  0
    8.0423   -0.8501   -0.2913 C   0  0  0  0  0  0  0  0  0  0  0  0
    9.7431   -1.0770   -0.4040 Cl  0  0  0  0  0  0  0  0  0  0  0  0
    7.1806   -1.7463   -0.9165 C   0  0  0  0  0  0  0  0  0  0  0  0
    5.7978   -1.5592   -0.8239 C   0  0  0  0  0  0  0  0  0  0  0  0
    1.0227    0.5332   -0.7733 C   0  0  0  0  0  0  0  0  0  0  0  0
    1.7406    0.7700   -2.0683 C   0  0  0  0  0  0  0  0  0  0  0  0
   -0.3218    0.3854   -0.8659 N   0  0  0  0  0  0  0  0  0  0  0  0
   -3.2439    0.2651    1.3416 C   0  0  0  0  0  0  0  0  0  0  0  0
   -4.4743    1.1473    1.0181 C   0  0  0  0  0  0  0  0  0  0  0  0
   -6.0751   -1.9185    0.6216 H   0  0  0  0  0  0  0  0  0  0  0  0
   -7.6220   -1.3945    1.2875 H   0  0  0  0  0  0  0  0  0  0  0  0
   -6.1219   -0.8852    2.0633 H   0  0  0  0  0  0  0  0  0  0  0  0
   -7.1824    0.9440    0.7084 H   0  0  0  0  0  0  0  0  0  0  0  0
   -7.1430   -0.0604   -0.7157 H   0  0  0  0  0  0  0  0  0  0  0  0
   -4.5980   -1.1660   -0.8356 H   0  0  0  0  0  0  0  0  0  0  0  0
   -4.9629    0.0194   -2.0904 H   0  0  0  0  0  0  0  0  0  0  0  0
   -2.9097    1.3031   -1.4766 H   0  0  0  0  0  0  0  0  0  0  0  0
   -2.5525   -0.3836   -1.9057 H   0  0  0  0  0  0  0  0  0  0  0  0
    1.2800    0.3279    2.5509 H   0  0  0  0  0  0  0  0  0  0  0  0
    3.3492   -1.0774   -0.5593 H   0  0  0  0  0  0  0  0  0  0  0  0
    5.7882    1.2721    1.0768 H   0  0  0  0  0  0  0  0  0  0  0  0
    8.1984    0.9338    0.9122 H   0  0  0  0  0  0  0  0  0  0  0  0
    7.5758   -2.5903   -1.4756 H   0  0  0  0  0  0  0  0  0  0  0  0
    5.1454   -2.2732   -1.3203 H   0  0  0  0  0  0  0  0  0  0  0  0
    2.2659   -0.1350   -2.3864 H   0  0  0  0  0  0  0  0  0  0  0  0
    2.4539    1.5948   -1.9748 H   0  0  0  0  0  0  0  0  0  0  0  0
    1.0305    1.0398   -2.8574 H   0  0  0  0  0  0  0  0  0  0  0  0
   -2.7055    0.7481    2.1656 H   0  0  0  0  0  0  0  0  0  0  0  0
   -3.5774   -0.7140    1.7050 H   0  0  0  0  0  0  0  0  0  0  0  0
   -4.1047    2.1547    0.7838 H   0  0  0  0  0  0  0  0  0  0  0  0
   -5.0871    1.2696    1.9195 H   0  0  0  0  0  0  0  0  0  0  0  0
  1  2  1  0
  2  3  1  0
  3  4  1  0
  4  5  1  0
  5  6  1  0
  6  7  1  0
  7  8  2  0
  8  9  1  0
  9 10  2  0
 10 11  1  0
 11 12  2  0
 11 13  1  0
 13 14  1  0
 14 15  2  0
 15 16  1  0
 16 17  2  0
 17 18  1  0
 17 19  1  0
 19 20  2  0
 10 21  1  0
 21 22  1  0
 21 23  2  0
  6 24  1  0
 24 25  1  0
 25  3  1  0
 23  7  1  0
 20 14  1  0
  1 26  1  0
  1 27  1  0
  1 28  1  0
  2 29  1  0
  2 30  1  0
  4 31  1  0
  4 32  1  0
  5 33  1  0
  5 34  1  0
  9 35  1  0
 13 36  1  0
 15 37  1  0
 16 38  1  0
 19 39  1  0
 20 40  1  0
 22 41  1  0
 22 42  1  0
 22 43  1  0
 24 44  1  0
 24 45  1  0
 25 46  1  0
 25 47  1  0
M  END
$$$$
