
     RDKit          3D

 48 50  0  0  0  0  0  0  0  0999 V2000
   -3.6410   -1.9392    3.2501 C   0  0  0  0  0  0  0  0  0  0  0  0
   -3.2967   -0.5858    2.9896 O   0  0  0  0  0  0  0  0  0  0  0  0
   -2.6797   -0.3050    1.7951 C   0  0  0  0  0  0  0  0  0  0  0  0
   -2.3266   -1.2700    0.8439 C   0  0  0  0  0  0  0  0  0  0  0  0
   -1.6837   -0.9041   -0.3408 C   0  0  0  0  0  0  0  0  0  0  0  0
   -1.3166   -1.9105   -1.2449 N   0  0  0  0  0  0  0  0  0  0  0  0
   -0.6946   -1.5534   -2.3180 C   0  0  0  0  0  0  0  0  0  0  0  0
   -0.3909   -0.2558   -2.6628 N   0  0  0  0  0  0  0  0  0  0  0  0
    0.2860    0.0160   -3.9307 C   0  0  0  0  0  0  0  0  0  0  0  0
    1.6796    0.6211   -3.7728 C   0  0  0  0  0  0  0  0  0  0  0  0
    2.5445   -0.2584   -2.9020 C   0  0  0  0  0  0  0  0  0  0  0  0
    2.6251   -1.4703   -3.0764 O   0  0  0  0  0  0  0  0  0  0  0  0
    3.2200    0.4298   -1.9201 N   0  0  0  0  0  0  0  0  0  0  0  0
    3.8905   -0.2652   -0.8445 C   0  0  0  0  0  0  0  0  0  0  0  0
    2.9667   -0.4067    0.3384 C   0  0  0  0  0  0  0  0  0  0  0  0
    2.8337    0.6321    1.2715 C   0  0  0  0  0  0  0  0  0  0  0  0
    1.9399    0.5158    2.3375 C   0  0  0  0  0  0  0  0  0  0  0  0
    1.1717   -0.6373    2.4814 C   0  0  0  0  0  0  0  0  0  0  0  0
    1.2931   -1.6736    1.5581 C   0  0  0  0  0  0  0  0  0  0  0  0
    2.1791   -1.5562    0.4868 C   0  0  0  0  0  0  0  0  0  0  0  0
   -0.7360    0.8010   -1.8325 C   0  0  0  0  0  0  0  0  0  0  0  0
   -0.5047    1.9796   -2.0918 O   0  0  0  0  0  0  0  0  0  0  0  0
   -1.4113    0.4416   -0.5711 C   0  0  0  0  0  0  0  0  0  0  0  0
   -1.7588    1.4238    0.3627 C   0  0  0  0  0  0  0  0  0  0  0  0
   -2.3901    1.0547    1.5527 C   0  0  0  0  0  0  0  0  0  0  0  0
   -2.7618    1.9355    2.5378 O   0  0  0  0  0  0  0  0  0  0  0  0
   -2.4895    3.3142    2.3270 C   0  0  0  0  0  0  0  0  0  0  0  0
   -4.1409   -1.9755    4.2229 H   0  0  0  0  0  0  0  0  0  0  0  0
   -4.3434   -2.3203    2.5014 H   0  0  0  0  0  0  0  0  0  0  0  0
   -2.7469   -2.5684    3.3127 H   0  0  0  0  0  0  0  0  0  0  0  0
   -2.5234   -2.3253    0.9984 H   0  0  0  0  0  0  0  0  0  0  0  0
   -0.3695   -2.3161   -3.0436 H   0  0  0  0  0  0  0  0  0  0  0  0
   -0.3408    0.7167   -4.4955 H   0  0  0  0  0  0  0  0  0  0  0  0
    0.3470   -0.9075   -4.5183 H   0  0  0  0  0  0  0  0  0  0  0  0
    1.6196    1.6331   -3.3612 H   0  0  0  0  0  0  0  0  0  0  0  0
    2.1635    0.7064   -4.7523 H   0  0  0  0  0  0  0  0  0  0  0  0
    2.9294    1.3786   -1.7223 H   0  0  0  0  0  0  0  0  0  0  0  0
    4.7703    0.3259   -0.5667 H   0  0  0  0  0  0  0  0  0  0  0  0
    4.2467   -1.2454   -1.1807 H   0  0  0  0  0  0  0  0  0  0  0  0
    3.4215    1.5410    1.1708 H   0  0  0  0  0  0  0  0  0  0  0  0
    1.8366    1.3261    3.0543 H   0  0  0  0  0  0  0  0  0  0  0  0
    0.4676   -0.7235    3.3052 H   0  0  0  0  0  0  0  0  0  0  0  0
    0.6829   -2.5676    1.6595 H   0  0  0  0  0  0  0  0  0  0  0  0
    2.2416   -2.3624   -0.2423 H   0  0  0  0  0  0  0  0  0  0  0  0
   -1.5195    2.4577    0.1383 H   0  0  0  0  0  0  0  0  0  0  0  0
   -3.0268    3.6937    1.4515 H   0  0  0  0  0  0  0  0  0  0  0  0
   -1.4128    3.4954    2.2421 H   0  0  0  0  0  0  0  0  0  0  0  0
   -2.8505    3.8640    3.2016 H   0  0  0  0  0  0  0  0  0  0  0  0
  1  2  1  0
  2  3  1  0
  3  4  2  0
  4  5  1  0
  5  6  1  0
  6  7  2  0
  7  8  1  0
  8  9  1  0
  9 10  1  0
 10 11  1  0
 11 12  2  0
 11 13  1  0
 13 14  1  0
 14 15  1  0
 15 16  2  0
 16 17  1  0
 17 18  2  0
 18 19  1  0
 19 20  2  0
  8 21  1  0
 21 22  2  0
 21 23  1  0
 23 24  1  0
 24 25  2  0
 25 26  1  0
 26 27  1  0
 25  3  1  0
 23  5  2  0
 20 15  1  0
  1 28  1  0
  1 29  1  0
  1 30  1  0
  4 31  1  0
  7 32  1  0
  9 33  1  0
  9 34  1  0
 10 35  1  0
 10 36  1  0
 13 37  1  0
 14 38  1  0
 14 39  1  0
 16 40  1  0
 17 41  1  0
 18 42  1  0
 19 43  1  0
 20 44  1  0
 24 45  1  0
 27 46  1  0
 27 47  1  0
 27 48  1  0
M  END
$$$$
