
     RDKit          3D

 32 33  0  0  0  0  0  0  0  0999 V2000
    4.3368    1.5434   -0.6422 C   0  0  0  0  0  0  0  0  0  0  0  0
    3.1634    0.7106   -0.2154 C   0  0  0  0  0  0  0  0  0  0  0  0
    2.4367    1.0497    0.9338 C   0  0  0  0  0  0  0  0  0  0  0  0
    1.3664    0.2579    1.3537 C   0  0  0  0  0  0  0  0  0  0  0  0
    1.0133   -0.8748    0.6156 C   0  0  0  0  0  0  0  0  0  0  0  0
   -0.3276   -1.9077    1.1705 S   0  0  0  0  0  6  0  0  0  0  0  0
   -0.0966   -3.2385    0.6477 O   0  0  0  0  0  0  0  0  0  0  0  0
   -0.4933   -1.6814    2.5913 O   0  0  0  0  0  0  0  0  0  0  0  0
   -1.6775   -1.2787    0.3896 N   0  0  0  0  0  0  0  0  0  0  0  0
   -1.8185   -1.4299   -1.0744 C   0  0  0  0  0  0  0  0  0  0  0  0
   -2.3068   -0.0713   -1.5661 C   0  0  0  0  0  0  0  0  0  0  0  0
   -3.1010    0.4532   -0.3772 C   0  0  0  0  0  0  0  0  0  0  0  0
   -3.3636    1.8840   -0.4782 N   0  0  0  0  0  0  0  0  0  0  0  0
   -2.2001    0.0425    0.7996 C   0  0  0  0  0  0  0  0  0  0  0  0
    1.7576   -1.2477   -0.5067 C   0  0  0  0  0  0  0  0  0  0  0  0
    2.8274   -0.4524   -0.9213 C   0  0  0  0  0  0  0  0  0  0  0  0
    4.1863    2.5950   -0.3762 H   0  0  0  0  0  0  0  0  0  0  0  0
    4.4720    1.4996   -1.7280 H   0  0  0  0  0  0  0  0  0  0  0  0
    5.2484    1.1820   -0.1567 H   0  0  0  0  0  0  0  0  0  0  0  0
    2.7063    1.9303    1.5137 H   0  0  0  0  0  0  0  0  0  0  0  0
    0.8206    0.5267    2.2554 H   0  0  0  0  0  0  0  0  0  0  0  0
   -0.8923   -1.7154   -1.5768 H   0  0  0  0  0  0  0  0  0  0  0  0
   -2.5684   -2.2045   -1.2688 H   0  0  0  0  0  0  0  0  0  0  0  0
   -1.4456    0.5756   -1.7789 H   0  0  0  0  0  0  0  0  0  0  0  0
   -2.9042   -0.1519   -2.4794 H   0  0  0  0  0  0  0  0  0  0  0  0
   -4.0557   -0.0847   -0.3108 H   0  0  0  0  0  0  0  0  0  0  0  0
   -3.9377    2.0712   -1.3002 H   0  0  0  0  0  0  0  0  0  0  0  0
   -3.9119    2.1912    0.3255 H   0  0  0  0  0  0  0  0  0  0  0  0
   -1.3882    0.7640    0.9293 H   0  0  0  0  0  0  0  0  0  0  0  0
   -2.7717   -0.0311    1.7292 H   0  0  0  0  0  0  0  0  0  0  0  0
    1.5206   -2.1567   -1.0550 H   0  0  0  0  0  0  0  0  0  0  0  0
    3.4049   -0.7501   -1.7943 H   0  0  0  0  0  0  0  0  0  0  0  0
  1  2  1  0
  2  3  2  0
  3  4  1  0
  4  5  2  0
  5  6  1  0
  6  7  2  0
  6  8  2  0
  6  9  1  0
  9 10  1  0
 10 11  1  0
 11 12  1  0
 12 13  1  0
 12 14  1  0
  5 15  1  0
 15 16  2  0
 16  2  1  0
 14  9  1  0
  1 17  1  0
  1 18  1  0
  1 19  1  0
  3 20  1  0
  4 21  1  0
 10 22  1  0
 10 23  1  0
 11 24  1  0
 11 25  1  0
 12 26  1  0
 13 27  1  0
 13 28  1  0
 14 29  1  0
 14 30  1  0
 15 31  1  0
 16 32  1  0
M  END
$$$$
