
     RDKit          3D

 38 39  0  0  0  0  0  0  0  0999 V2000
    6.2702    0.3074   -0.2472 C   0  0  0  0  0  0  0  0  0  0  0  0
    4.8852    0.0340    0.2595 C   0  0  0  0  0  0  0  0  0  0  0  0
    4.4196    0.6552    1.4238 C   0  0  0  0  0  0  0  0  0  0  0  0
    3.1193    0.4239    1.8802 C   0  0  0  0  0  0  0  0  0  0  0  0
    2.2608   -0.4306    1.1766 C   0  0  0  0  0  0  0  0  0  0  0  0
    0.8489   -0.6661    1.6459 C   0  0  0  0  0  0  0  0  0  0  0  0
   -0.0710    0.2036    0.9456 N   0  0  0  0  0  0  0  0  0  0  0  0
   -0.8191   -0.2474   -0.1201 C   0  0  0  0  0  0  0  0  0  0  0  0
   -0.8277   -1.4119   -0.4978 O   0  0  0  0  0  0  0  0  0  0  0  0
   -1.5887    0.8593   -0.8092 C   0  0  0  0  0  0  0  0  0  0  0  0
   -2.7350    0.3267   -1.6792 C   0  0  0  0  0  0  0  0  0  0  0  0
   -3.3234    1.4615   -2.5227 C   0  0  0  0  0  0  0  0  0  0  0  0
   -3.8021   -0.3291   -0.9240 N   0  0  0  0  0  0  0  0  0  0  0  0
   -4.2722   -0.0231    0.3242 C   0  0  0  0  0  0  0  0  0  0  0  0
   -5.3029   -0.8991    0.5728 C   0  0  0  0  0  0  0  0  0  0  0  0
   -5.4044   -1.6701   -0.5967 C   0  0  0  0  0  0  0  0  0  0  0  0
   -4.5144   -1.3076   -1.5217 N   0  0  0  0  0  0  0  0  0  0  0  0
    2.7219   -1.0338   -0.0011 C   0  0  0  0  0  0  0  0  0  0  0  0
    4.0213   -0.8015   -0.4568 C   0  0  0  0  0  0  0  0  0  0  0  0
    6.6649   -0.5570   -0.7914 H   0  0  0  0  0  0  0  0  0  0  0  0
    6.9565    0.5098    0.5817 H   0  0  0  0  0  0  0  0  0  0  0  0
    6.2594    1.1727   -0.9171 H   0  0  0  0  0  0  0  0  0  0  0  0
    5.0693    1.3233    1.9849 H   0  0  0  0  0  0  0  0  0  0  0  0
    2.7839    0.9154    2.7904 H   0  0  0  0  0  0  0  0  0  0  0  0
    0.5728   -1.7183    1.5142 H   0  0  0  0  0  0  0  0  0  0  0  0
    0.7593   -0.4388    2.7140 H   0  0  0  0  0  0  0  0  0  0  0  0
    0.0612    1.1982    1.0657 H   0  0  0  0  0  0  0  0  0  0  0  0
   -1.9554    1.5737   -0.0631 H   0  0  0  0  0  0  0  0  0  0  0  0
   -0.8666    1.3933   -1.4401 H   0  0  0  0  0  0  0  0  0  0  0  0
   -2.3380   -0.4371   -2.3616 H   0  0  0  0  0  0  0  0  0  0  0  0
   -3.7556    2.2450   -1.8900 H   0  0  0  0  0  0  0  0  0  0  0  0
   -4.1177    1.0933   -3.1814 H   0  0  0  0  0  0  0  0  0  0  0  0
   -2.5530    1.9188   -3.1525 H   0  0  0  0  0  0  0  0  0  0  0  0
   -3.8487    0.7640    0.9295 H   0  0  0  0  0  0  0  0  0  0  0  0
   -5.9020   -0.9670    1.4690 H   0  0  0  0  0  0  0  0  0  0  0  0
   -6.0941   -2.4738   -0.8189 H   0  0  0  0  0  0  0  0  0  0  0  0
    2.0637   -1.6874   -0.5727 H   0  0  0  0  0  0  0  0  0  0  0  0
    4.3534   -1.2794   -1.3759 H   0  0  0  0  0  0  0  0  0  0  0  0
  1  2  1  0
  2  3  2  0
  3  4  1  0
  4  5  2  0
  5  6  1  0
  6  7  1  0
  7  8  1  0
  8  9  2  0
  8 10  1  0
 10 11  1  0
 11 12  1  0
 11 13  1  0
 13 14  1  0
 14 15  2  0
 15 16  1  0
 16 17  2  0
  5 18  1  0
 18 19  2  0
 19  2  1  0
 17 13  1  0
  1 20  1  0
  1 21  1  0
  1 22  1  0
  3 23  1  0
  4 24  1  0
  6 25  1  0
  6 26  1  0
  7 27  1  0
 10 28  1  0
 10 29  1  0
 11 30  1  0
 12 31  1  0
 12 32  1  0
 12 33  1  0
 14 34  1  0
 15 35  1  0
 16 36  1  0
 18 37  1  0
 19 38  1  0
M  END
$$$$
