
     RDKit          3D

 49 51  0  0  0  0  0  0  0  0999 V2000
    7.7958   -1.0768   -0.0869 C   0  0  0  0  0  0  0  0  0  0  0  0
    6.4848   -0.5254    0.4747 C   0  0  0  0  0  0  0  0  0  0  0  0
    6.7336    0.8197    1.1608 C   0  0  0  0  0  0  0  0  0  0  0  0
    5.4433   -0.4000   -0.6447 C   0  0  0  0  0  0  0  0  0  0  0  0
    4.1258   -0.0793   -0.1312 N   0  0  0  0  0  0  0  0  0  0  0  0
    3.1424    0.4182   -0.9633 C   0  0  0  0  0  0  0  0  0  0  0  0
    3.3420    0.7168   -2.1358 O   0  0  0  0  0  0  0  0  0  0  0  0
    1.7841    0.5523   -0.2831 C   0  0  0  0  0  0  0  0  0  0  0  0
    1.1885   -0.8362    0.0097 C   0  0  0  0  0  0  0  0  0  0  0  0
   -0.1502   -1.0694   -0.6897 C   0  0  0  0  0  0  0  0  0  0  0  0
   -1.0594    0.0264   -0.3713 N   0  0  0  0  0  0  0  0  0  0  0  0
   -2.3941   -0.2493   -0.2327 C   0  0  0  0  0  0  0  0  0  0  0  0
   -2.9260   -1.4532   -0.3479 N   0  0  0  0  0  0  0  0  0  0  0  0
   -4.2901   -1.4734   -0.1544 N   0  0  0  0  0  0  0  0  0  0  0  0
   -4.7701   -0.2813    0.1224 C   0  0  0  0  0  0  0  0  0  0  0  0
   -6.1101   -0.0337    0.3537 N   0  0  0  0  0  0  0  0  0  0  0  0
   -7.1101   -1.0729    0.3358 C   0  0  0  0  0  0  0  0  0  0  0  0
   -8.4162   -0.3175    0.2293 C   0  0  0  0  0  0  0  0  0  0  0  0
   -8.1325    0.9710    0.9805 C   0  0  0  0  0  0  0  0  0  0  0  0
   -6.6530    1.1895    0.7502 C   0  0  0  0  0  0  0  0  0  0  0  0
   -6.1085    2.2651    0.9423 O   0  0  0  0  0  0  0  0  0  0  0  0
   -3.5905    0.9437    0.1544 S   0  0  0  0  0  0  0  0  0  0  0  0
   -0.5820    1.3954   -0.5574 C   0  0  0  0  0  0  0  0  0  0  0  0
    0.8378    1.4236   -1.1155 C   0  0  0  0  0  0  0  0  0  0  0  0
    7.6390   -2.0577   -0.5490 H   0  0  0  0  0  0  0  0  0  0  0  0
    8.5396   -1.1982    0.7082 H   0  0  0  0  0  0  0  0  0  0  0  0
    8.2162   -0.4075   -0.8456 H   0  0  0  0  0  0  0  0  0  0  0  0
    6.1146   -1.2304    1.2304 H   0  0  0  0  0  0  0  0  0  0  0  0
    5.8181    1.2046    1.6219 H   0  0  0  0  0  0  0  0  0  0  0  0
    7.4845    0.7183    1.9519 H   0  0  0  0  0  0  0  0  0  0  0  0
    7.0947    1.5687    0.4475 H   0  0  0  0  0  0  0  0  0  0  0  0
    5.3444   -1.3503   -1.1824 H   0  0  0  0  0  0  0  0  0  0  0  0
    5.7422    0.3606   -1.3754 H   0  0  0  0  0  0  0  0  0  0  0  0
    3.8420   -0.4988    0.7454 H   0  0  0  0  0  0  0  0  0  0  0  0
    1.9594    1.0639    0.6737 H   0  0  0  0  0  0  0  0  0  0  0  0
    1.0364   -0.9227    1.0940 H   0  0  0  0  0  0  0  0  0  0  0  0
    1.8755   -1.6443   -0.2677 H   0  0  0  0  0  0  0  0  0  0  0  0
   -0.0149   -1.1429   -1.7757 H   0  0  0  0  0  0  0  0  0  0  0  0
   -0.5375   -2.0377   -0.3496 H   0  0  0  0  0  0  0  0  0  0  0  0
   -6.9651   -1.7523   -0.5099 H   0  0  0  0  0  0  0  0  0  0  0  0
   -7.0464   -1.6320    1.2762 H   0  0  0  0  0  0  0  0  0  0  0  0
   -9.2659   -0.8730    0.6356 H   0  0  0  0  0  0  0  0  0  0  0  0
   -8.6312   -0.0897   -0.8223 H   0  0  0  0  0  0  0  0  0  0  0  0
   -8.7174    1.8050    0.5847 H   0  0  0  0  0  0  0  0  0  0  0  0
   -8.3098    0.8604    2.0548 H   0  0  0  0  0  0  0  0  0  0  0  0
   -1.2262    1.9453   -1.2548 H   0  0  0  0  0  0  0  0  0  0  0  0
   -0.6031    1.9188    0.4062 H   0  0  0  0  0  0  0  0  0  0  0  0
    1.2054    2.4568   -1.1415 H   0  0  0  0  0  0  0  0  0  0  0  0
    0.8201    1.0822   -2.1594 H   0  0  0  0  0  0  0  0  0  0  0  0
  1  2  1  0
  2  3  1  0
  2  4  1  0
  4  5  1  0
  5  6  1  0
  6  7  2  0
  6  8  1  0
  8  9  1  0
  9 10  1  0
 10 11  1  0
 11 12  1  0
 12 13  2  0
 13 14  1  0
 14 15  2  0
 15 16  1  0
 16 17  1  0
 17 18  1  0
 18 19  1  0
 19 20  1  0
 20 21  2  0
 15 22  1  0
 11 23  1  0
 23 24  1  0
 24  8  1  0
 22 12  1  0
 20 16  1  0
  1 25  1  0
  1 26  1  0
  1 27  1  0
  2 28  1  0
  3 29  1  0
  3 30  1  0
  3 31  1  0
  4 32  1  0
  4 33  1  0
  5 34  1  0
  8 35  1  0
  9 36  1  0
  9 37  1  0
 10 38  1  0
 10 39  1  0
 17 40  1  0
 17 41  1  0
 18 42  1  0
 18 43  1  0
 19 44  1  0
 19 45  1  0
 23 46  1  0
 23 47  1  0
 24 48  1  0
 24 49  1  0
M  END
$$$$
