
     RDKit          3D

 40 43  0  0  0  0  0  0  0  0999 V2000
    3.4831   -2.0486   -1.8068 O   0  0  0  0  0  0  0  0  0  0  0  0
    2.8330   -1.2176   -1.1780 C   0  0  0  0  0  0  0  0  0  0  0  0
    3.3583   -0.1156   -0.5405 N   0  0  0  0  0  0  0  0  0  0  0  0
    4.7109    0.2867   -0.4724 C   0  0  0  0  0  0  0  0  0  0  0  0
    5.7714   -0.4007   -1.0674 C   0  0  0  0  0  0  0  0  0  0  0  0
    7.0796    0.0816   -0.9413 C   0  0  0  0  0  0  0  0  0  0  0  0
    7.3249    1.2471   -0.2226 C   0  0  0  0  0  0  0  0  0  0  0  0
    8.5801    1.6994   -0.1083 F   0  0  0  0  0  0  0  0  0  0  0  0
    6.2895    1.9462    0.3764 C   0  0  0  0  0  0  0  0  0  0  0  0
    4.9941    1.4597    0.2458 C   0  0  0  0  0  0  0  0  0  0  0  0
    3.9911    2.1372    0.8264 F   0  0  0  0  0  0  0  0  0  0  0  0
    1.3485   -1.3658   -1.0634 C   0  0  0  0  0  0  0  0  0  0  0  0
    0.7614   -2.4203   -1.6603 C   0  0  0  0  0  0  0  0  0  0  0  0
   -0.5850   -2.7091   -1.6556 N   0  0  0  0  0  0  0  0  0  0  0  0
   -1.3229   -1.8704   -1.0116 C   0  0  0  0  0  0  0  0  0  0  0  0
   -3.0368   -1.9961   -0.8495 S   0  0  0  0  0  0  0  0  0  0  0  0
   -3.0050   -0.5103    0.0984 C   0  0  0  0  0  0  0  0  0  0  0  0
   -4.1719    0.0152    0.6055 N   0  0  0  0  0  0  0  0  0  0  0  0
   -4.1289    1.1752    1.5127 C   0  0  0  0  0  0  0  0  0  0  0  0
   -5.2596    1.0826    2.5462 C   0  0  0  0  0  0  0  0  0  0  0  0
   -6.5719    1.0416    1.9695 O   0  0  0  0  0  0  0  0  0  0  0  0
   -6.5925    0.5259    0.6333 C   0  0  0  0  0  0  0  0  0  0  0  0
   -5.5140   -0.5348    0.3662 C   0  0  0  0  0  0  0  0  0  0  0  0
   -1.8241    0.0081    0.2675 N   0  0  0  0  0  0  0  0  0  0  0  0
   -0.8747   -0.7583   -0.3595 N   0  0  0  0  0  0  0  0  0  0  0  0
    0.4637   -0.4218   -0.3290 C   0  0  0  0  0  0  0  0  0  0  0  0
    0.9391    0.5602    0.2409 O   0  0  0  0  0  0  0  0  0  0  0  0
    2.7057    0.5034   -0.0479 H   0  0  0  0  0  0  0  0  0  0  0  0
    5.6190   -1.3129   -1.6356 H   0  0  0  0  0  0  0  0  0  0  0  0
    7.9075   -0.4494   -1.4022 H   0  0  0  0  0  0  0  0  0  0  0  0
    6.4846    2.8532    0.9352 H   0  0  0  0  0  0  0  0  0  0  0  0
    1.3656   -3.1417   -2.2112 H   0  0  0  0  0  0  0  0  0  0  0  0
   -3.1746    1.2257    2.0485 H   0  0  0  0  0  0  0  0  0  0  0  0
   -4.2344    2.0885    0.9160 H   0  0  0  0  0  0  0  0  0  0  0  0
   -5.2246    1.9421    3.2231 H   0  0  0  0  0  0  0  0  0  0  0  0
   -5.1410    0.1800    3.1572 H   0  0  0  0  0  0  0  0  0  0  0  0
   -7.5872    0.1032    0.4591 H   0  0  0  0  0  0  0  0  0  0  0  0
   -6.4739    1.3724   -0.0535 H   0  0  0  0  0  0  0  0  0  0  0  0
   -5.6228   -0.8692   -0.6706 H   0  0  0  0  0  0  0  0  0  0  0  0
   -5.6653   -1.3926    1.0315 H   0  0  0  0  0  0  0  0  0  0  0  0
  1  2  2  0
  2  3  1  0
  3  4  1  0
  4  5  2  0
  5  6  1  0
  6  7  2  0
  7  8  1  0
  7  9  1  0
  9 10  2  0
 10 11  1  0
  2 12  1  0
 12 13  2  0
 13 14  1  0
 14 15  2  0
 15 16  1  0
 16 17  1  0
 17 18  1  0
 18 19  1  0
 19 20  1  0
 20 21  1  0
 21 22  1  0
 22 23  1  0
 17 24  2  0
 24 25  1  0
 25 26  1  0
 26 27  2  0
 10  4  1  0
 26 12  1  0
 25 15  1  0
 23 18  1  0
  3 28  1  0
  5 29  1  0
  6 30  1  0
  9 31  1  0
 13 32  1  0
 19 33  1  0
 19 34  1  0
 20 35  1  0
 20 36  1  0
 22 37  1  0
 22 38  1  0
 23 39  1  0
 23 40  1  0
M  END
$$$$
