
     RDKit          3D

 50 52  0  0  0  0  0  0  0  0999 V2000
    6.5826   -0.1290    3.2203 C   0  0  0  0  0  0  0  0  0  0  0  0
    5.6217   -1.0427    2.7059 O   0  0  0  0  0  0  0  0  0  0  0  0
    5.0206   -0.7114    1.5235 C   0  0  0  0  0  0  0  0  0  0  0  0
    4.1080   -1.6600    1.0495 C   0  0  0  0  0  0  0  0  0  0  0  0
    3.4188   -1.4527   -0.1462 C   0  0  0  0  0  0  0  0  0  0  0  0
    3.6412   -0.2782   -0.8671 C   0  0  0  0  0  0  0  0  0  0  0  0
    2.7631   -0.0082   -2.3801 S   0  0  0  0  0  6  0  0  0  0  0  0
    2.7810   -1.2337   -3.1549 O   0  0  0  0  0  0  0  0  0  0  0  0
    3.1643    1.2697   -2.9416 O   0  0  0  0  0  0  0  0  0  0  0  0
    1.1264    0.2080   -1.8472 N   0  0  0  0  0  0  0  0  0  0  0  0
    0.6191    1.4515   -1.5550 C   0  0  0  0  0  0  0  0  0  0  0  0
   -0.6323    1.2201   -1.0349 C   0  0  0  0  0  0  0  0  0  0  0  0
   -1.6405    2.1220   -0.5770 C   0  0  0  0  0  0  0  0  0  0  0  0
   -1.4591    3.3346   -0.5917 O   0  0  0  0  0  0  0  0  0  0  0  0
   -2.8006    1.4792   -0.1250 N   0  0  0  0  0  0  0  0  0  0  0  0
   -3.8863    2.3613    0.3526 C   0  0  0  0  0  0  0  0  0  0  0  0
   -5.1829    2.1948   -0.4459 C   0  0  0  0  0  0  0  0  0  0  0  0
   -4.1240    2.2337    1.8600 C   0  0  0  0  0  0  0  0  0  0  0  0
   -2.9816    0.0801   -0.0512 C   0  0  0  0  0  0  0  0  0  0  0  0
   -4.0175   -0.4039    0.4108 O   0  0  0  0  0  0  0  0  0  0  0  0
   -1.9462   -0.7445   -0.5143 N   0  0  0  0  0  0  0  0  0  0  0  0
   -2.0808   -2.2183   -0.4752 C   0  0  0  0  0  0  0  0  0  0  0  0
   -2.1850   -2.7550    0.9546 C   0  0  0  0  0  0  0  0  0  0  0  0
   -3.2277   -2.7237   -1.3545 C   0  0  0  0  0  0  0  0  0  0  0  0
   -0.7893   -0.1608   -1.0011 C   0  0  0  0  0  0  0  0  0  0  0  0
    0.2899   -0.7989   -1.4575 N   0  0  0  0  0  0  0  0  0  0  0  0
    4.5580    0.6728   -0.4123 C   0  0  0  0  0  0  0  0  0  0  0  0
    5.2446    0.4542    0.7868 C   0  0  0  0  0  0  0  0  0  0  0  0
    6.1232    0.8377    3.4512 H   0  0  0  0  0  0  0  0  0  0  0  0
    7.4253   -0.0124    2.5308 H   0  0  0  0  0  0  0  0  0  0  0  0
    6.9720   -0.5443    4.1548 H   0  0  0  0  0  0  0  0  0  0  0  0
    3.9389   -2.5727    1.6175 H   0  0  0  0  0  0  0  0  0  0  0  0
    2.7229   -2.2098   -0.5033 H   0  0  0  0  0  0  0  0  0  0  0  0
    1.1668    2.3639   -1.7531 H   0  0  0  0  0  0  0  0  0  0  0  0
   -3.5819    3.4023    0.1912 H   0  0  0  0  0  0  0  0  0  0  0  0
   -4.9872    2.2740   -1.5207 H   0  0  0  0  0  0  0  0  0  0  0  0
   -5.6707    1.2332   -0.2645 H   0  0  0  0  0  0  0  0  0  0  0  0
   -5.8997    2.9778   -0.1754 H   0  0  0  0  0  0  0  0  0  0  0  0
   -4.8271    3.0007    2.2024 H   0  0  0  0  0  0  0  0  0  0  0  0
   -3.1865    2.3657    2.4108 H   0  0  0  0  0  0  0  0  0  0  0  0
   -4.5401    1.2615    2.1386 H   0  0  0  0  0  0  0  0  0  0  0  0
   -1.1674   -2.6566   -0.8954 H   0  0  0  0  0  0  0  0  0  0  0  0
   -1.3562   -2.3844    1.5674 H   0  0  0  0  0  0  0  0  0  0  0  0
   -2.1426   -3.8496    0.9565 H   0  0  0  0  0  0  0  0  0  0  0  0
   -3.1184   -2.4625    1.4440 H   0  0  0  0  0  0  0  0  0  0  0  0
   -3.1394   -2.3252   -2.3709 H   0  0  0  0  0  0  0  0  0  0  0  0
   -3.2074   -3.8171   -1.4180 H   0  0  0  0  0  0  0  0  0  0  0  0
   -4.2097   -2.4371   -0.9678 H   0  0  0  0  0  0  0  0  0  0  0  0
    4.7505    1.5826   -0.9777 H   0  0  0  0  0  0  0  0  0  0  0  0
    5.9494    1.2112    1.1165 H   0  0  0  0  0  0  0  0  0  0  0  0
  1  2  1  0
  2  3  1  0
  3  4  2  0
  4  5  1  0
  5  6  2  0
  6  7  1  0
  7  8  2  0
  7  9  2  0
  7 10  1  0
 10 11  1  0
 11 12  2  0
 12 13  1  0
 13 14  2  0
 13 15  1  0
 15 16  1  0
 16 17  1  0
 16 18  1  0
 15 19  1  0
 19 20  2  0
 19 21  1  0
 21 22  1  0
 22 23  1  0
 22 24  1  0
 21 25  1  0
 25 26  2  0
  6 27  1  0
 27 28  2  0
 28  3  1  0
 26 10  1  0
 25 12  1  0
  1 29  1  0
  1 30  1  0
  1 31  1  0
  4 32  1  0
  5 33  1  0
 11 34  1  0
 16 35  1  0
 17 36  1  0
 17 37  1  0
 17 38  1  0
 18 39  1  0
 18 40  1  0
 18 41  1  0
 22 42  1  0
 23 43  1  0
 23 44  1  0
 23 45  1  0
 24 46  1  0
 24 47  1  0
 24 48  1  0
 27 49  1  0
 28 50  1  0
M  END
$$$$
