
     RDKit          3D

 65 68  0  0  0  0  0  0  0  0999 V2000
   -9.4633   -2.4906   -0.2486 C   0  0  0  0  0  0  0  0  0  0  0  0
   -8.0528   -2.6654   -0.2707 O   0  0  0  0  0  0  0  0  0  0  0  0
   -7.2987   -1.5699   -0.5897 C   0  0  0  0  0  0  0  0  0  0  0  0
   -5.9205   -1.7917   -0.5989 C   0  0  0  0  0  0  0  0  0  0  0  0
   -5.0335   -0.7587   -0.9106 C   0  0  0  0  0  0  0  0  0  0  0  0
   -5.5146    0.5196   -1.2194 C   0  0  0  0  0  0  0  0  0  0  0  0
   -4.5561    1.6365   -1.5424 C   0  0  0  0  0  0  0  0  0  0  0  0
   -3.8586    2.0796   -0.3545 N   0  0  0  0  0  0  0  0  0  0  0  0
   -2.5431    1.7299   -0.1179 C   0  0  0  0  0  0  0  0  0  0  0  0
   -1.8470    1.1513   -0.9498 O   0  0  0  0  0  0  0  0  0  0  0  0
   -2.0095    2.2052    1.2402 C   0  0  0  0  0  0  0  0  0  0  0  0
   -1.0123    1.2872    1.7824 N   0  0  0  0  0  0  0  0  0  0  0  0
   -1.4961    0.2203    2.5362 C   0  0  0  0  0  0  0  0  0  0  0  0
   -2.6894    0.0794    2.8095 O   0  0  0  0  0  0  0  0  0  0  0  0
   -0.4922   -0.8360    2.9287 C   0  0  0  0  0  0  0  0  0  0  0  0
    0.8209   -0.2092    3.3403 C   0  0  0  0  0  0  0  0  0  0  0  0
    1.3084    0.7044    2.2530 C   0  0  0  0  0  0  0  0  0  0  0  0
    2.6848    0.8628    2.0369 C   0  0  0  0  0  0  0  0  0  0  0  0
    3.1328    1.7474    1.0552 C   0  0  0  0  0  0  0  0  0  0  0  0
    4.8781    1.9184    0.7798 S   0  0  0  0  0  6  0  0  0  0  0  0
    5.0897    2.9449   -0.2195 O   0  0  0  0  0  0  0  0  0  0  0  0
    5.5103    1.9991    2.0794 O   0  0  0  0  0  0  0  0  0  0  0  0
    5.2882    0.4162    0.0721 N   0  0  0  0  0  0  0  0  0  0  0  0
    4.5845    0.1035   -1.2080 C   0  0  0  0  0  0  0  0  0  0  0  0
    5.3244   -0.9514   -2.0355 C   0  0  0  0  0  0  0  0  0  0  0  0
    5.9934   -1.9935   -1.1381 C   0  0  0  0  0  0  0  0  0  0  0  0
    6.6562   -3.0955   -1.9605 C   0  0  0  0  0  0  0  0  0  0  0  0
    7.0030   -1.3231   -0.1901 C   0  0  0  0  0  0  0  0  0  0  0  0
    6.7477    0.1728    0.0027 C   0  0  0  0  0  0  0  0  0  0  0  0
    2.2263    2.4958    0.3075 C   0  0  0  0  0  0  0  0  0  0  0  0
    0.8547    2.3463    0.5366 C   0  0  0  0  0  0  0  0  0  0  0  0
    0.3780    1.4528    1.5080 C   0  0  0  0  0  0  0  0  0  0  0  0
   -6.8981    0.7401   -1.2041 C   0  0  0  0  0  0  0  0  0  0  0  0
   -7.7846   -0.2983   -0.8935 C   0  0  0  0  0  0  0  0  0  0  0  0
   -9.8419   -2.2121   -1.2375 H   0  0  0  0  0  0  0  0  0  0  0  0
   -9.7590   -1.7579    0.5094 H   0  0  0  0  0  0  0  0  0  0  0  0
   -9.9150   -3.4498    0.0223 H   0  0  0  0  0  0  0  0  0  0  0  0
   -5.5317   -2.7781   -0.3582 H   0  0  0  0  0  0  0  0  0  0  0  0
   -3.9627   -0.9562   -0.9069 H   0  0  0  0  0  0  0  0  0  0  0  0
   -5.0987    2.5053   -1.9311 H   0  0  0  0  0  0  0  0  0  0  0  0
   -3.8552    1.3160   -2.3210 H   0  0  0  0  0  0  0  0  0  0  0  0
   -4.4368    2.3251    0.4392 H   0  0  0  0  0  0  0  0  0  0  0  0
   -1.6023    3.2161    1.1379 H   0  0  0  0  0  0  0  0  0  0  0  0
   -2.8447    2.2854    1.9461 H   0  0  0  0  0  0  0  0  0  0  0  0
   -0.8981   -1.4190    3.7626 H   0  0  0  0  0  0  0  0  0  0  0  0
   -0.3625   -1.5112    2.0743 H   0  0  0  0  0  0  0  0  0  0  0  0
    1.5514   -1.0019    3.5384 H   0  0  0  0  0  0  0  0  0  0  0  0
    0.7001    0.3756    4.2603 H   0  0  0  0  0  0  0  0  0  0  0  0
    3.4058    0.3000    2.6276 H   0  0  0  0  0  0  0  0  0  0  0  0
    3.5918   -0.2859   -0.9542 H   0  0  0  0  0  0  0  0  0  0  0  0
    4.4496    1.0007   -1.8210 H   0  0  0  0  0  0  0  0  0  0  0  0
    6.0838   -0.4606   -2.6586 H   0  0  0  0  0  0  0  0  0  0  0  0
    4.6191   -1.4267   -2.7279 H   0  0  0  0  0  0  0  0  0  0  0  0
    5.2114   -2.4638   -0.5260 H   0  0  0  0  0  0  0  0  0  0  0  0
    7.1158   -3.8439   -1.3062 H   0  0  0  0  0  0  0  0  0  0  0  0
    7.4355   -2.6901   -2.6147 H   0  0  0  0  0  0  0  0  0  0  0  0
    5.9195   -3.6063   -2.5895 H   0  0  0  0  0  0  0  0  0  0  0  0
    8.0326   -1.4551   -0.5449 H   0  0  0  0  0  0  0  0  0  0  0  0
    6.9501   -1.8304    0.7820 H   0  0  0  0  0  0  0  0  0  0  0  0
    7.2478    0.4898    0.9236 H   0  0  0  0  0  0  0  0  0  0  0  0
    7.1809    0.7484   -0.8242 H   0  0  0  0  0  0  0  0  0  0  0  0
    2.5709    3.1893   -0.4566 H   0  0  0  0  0  0  0  0  0  0  0  0
    0.1800    2.9232   -0.0889 H   0  0  0  0  0  0  0  0  0  0  0  0
   -7.3016    1.7235   -1.4361 H   0  0  0  0  0  0  0  0  0  0  0  0
   -8.8470   -0.0794   -0.8973 H   0  0  0  0  0  0  0  0  0  0  0  0
  1  2  1  0
  2  3  1  0
  3  4  2  0
  4  5  1  0
  5  6  2  0
  6  7  1  0
  7  8  1  0
  8  9  1  0
  9 10  2  0
  9 11  1  0
 11 12  1  0
 12 13  1  0
 13 14  2  0
 13 15  1  0
 15 16  1  0
 16 17  1  0
 17 18  2  0
 18 19  1  0
 19 20  1  0
 20 21  2  0
 20 22  2  0
 20 23  1  0
 23 24  1  0
 24 25  1  0
 25 26  1  0
 26 27  1  0
 26 28  1  0
 28 29  1  0
 19 30  2  0
 30 31  1  0
 31 32  2  0
  6 33  1  0
 33 34  2  0
 34  3  1  0
 32 12  1  0
 32 17  1  0
 29 23  1  0
  1 35  1  0
  1 36  1  0
  1 37  1  0
  4 38  1  0
  5 39  1  0
  7 40  1  0
  7 41  1  0
  8 42  1  0
 11 43  1  0
 11 44  1  0
 15 45  1  0
 15 46  1  0
 16 47  1  0
 16 48  1  0
 18 49  1  0
 24 50  1  0
 24 51  1  0
 25 52  1  0
 25 53  1  0
 26 54  1  0
 27 55  1  0
 27 56  1  0
 27 57  1  0
 28 58  1  0
 28 59  1  0
 29 60  1  0
 29 61  1  0
 30 62  1  0
 31 63  1  0
 33 64  1  0
 34 65  1  0
M  END
$$$$
