
     RDKit          3D

 50 52  0  0  0  0  0  0  0  0999 V2000
    8.2050    1.3609    0.8909 C   0  0  0  0  0  0  0  0  0  0  0  0
    8.1785    0.3322   -0.0910 O   0  0  0  0  0  0  0  0  0  0  0  0
    6.9646   -0.2399   -0.3574 C   0  0  0  0  0  0  0  0  0  0  0  0
    6.9967   -1.2472   -1.3242 C   0  0  0  0  0  0  0  0  0  0  0  0
    5.8305   -1.9157   -1.6929 C   0  0  0  0  0  0  0  0  0  0  0  0
    4.6182   -1.5771   -1.0925 C   0  0  0  0  0  0  0  0  0  0  0  0
    4.5626   -0.5682   -0.1197 C   0  0  0  0  0  0  0  0  0  0  0  0
    3.2874   -0.2213    0.5015 C   0  0  0  0  0  0  0  0  0  0  0  0
    3.1445    0.7267    1.4434 N   0  0  0  0  0  0  0  0  0  0  0  0
    1.7802    0.6993    1.7277 O   0  0  0  0  0  0  0  0  0  0  0  0
    1.2312   -0.2592    0.9270 C   0  0  0  0  0  0  0  0  0  0  0  0
   -0.0955   -0.4474    1.0291 N   0  0  0  0  0  0  0  0  0  0  0  0
   -0.7992   -1.1900    0.0012 C   0  0  0  0  0  0  0  0  0  0  0  0
   -1.0489   -0.3607   -1.2556 C   0  0  0  0  0  0  0  0  0  0  0  0
   -1.8571    0.9347   -1.0757 C   0  0  0  0  0  0  0  0  0  0  0  0
   -3.2661    0.8680   -0.6761 N   0  0  0  0  0  0  0  0  0  0  0  0
   -4.0567   -0.1182   -1.4124 C   0  0  0  0  0  0  0  0  0  0  0  0
   -5.5521    0.0640   -1.1425 C   0  0  0  0  0  0  0  0  0  0  0  0
   -5.8588    0.0193    0.3585 C   0  0  0  0  0  0  0  0  0  0  0  0
   -7.3368    0.2923    0.6241 C   0  0  0  0  0  0  0  0  0  0  0  0
   -4.9717    1.0280    1.0967 C   0  0  0  0  0  0  0  0  0  0  0  0
   -3.4918    0.8152    0.7668 C   0  0  0  0  0  0  0  0  0  0  0  0
    2.1089   -0.8478    0.1568 N   0  0  0  0  0  0  0  0  0  0  0  0
    5.7483    0.0968    0.2419 C   0  0  0  0  0  0  0  0  0  0  0  0
    9.2392    1.7061    0.9851 H   0  0  0  0  0  0  0  0  0  0  0  0
    7.8905    0.9816    1.8687 H   0  0  0  0  0  0  0  0  0  0  0  0
    7.5954    2.2167    0.5824 H   0  0  0  0  0  0  0  0  0  0  0  0
    7.9413   -1.5126   -1.7933 H   0  0  0  0  0  0  0  0  0  0  0  0
    5.8669   -2.6986   -2.4457 H   0  0  0  0  0  0  0  0  0  0  0  0
    3.7147   -2.1072   -1.3884 H   0  0  0  0  0  0  0  0  0  0  0  0
   -0.6271    0.2648    1.5156 H   0  0  0  0  0  0  0  0  0  0  0  0
   -0.2337   -2.0914   -0.2690 H   0  0  0  0  0  0  0  0  0  0  0  0
   -1.7448   -1.5572    0.4097 H   0  0  0  0  0  0  0  0  0  0  0  0
   -0.0806   -0.0845   -1.6937 H   0  0  0  0  0  0  0  0  0  0  0  0
   -1.5338   -0.9973   -2.0056 H   0  0  0  0  0  0  0  0  0  0  0  0
   -1.3144    1.6185   -0.4106 H   0  0  0  0  0  0  0  0  0  0  0  0
   -1.8419    1.4434   -2.0495 H   0  0  0  0  0  0  0  0  0  0  0  0
   -3.7636   -1.1395   -1.1396 H   0  0  0  0  0  0  0  0  0  0  0  0
   -3.8903   -0.0048   -2.4904 H   0  0  0  0  0  0  0  0  0  0  0  0
   -6.1131   -0.7217   -1.6626 H   0  0  0  0  0  0  0  0  0  0  0  0
   -5.8830    1.0224   -1.5641 H   0  0  0  0  0  0  0  0  0  0  0  0
   -5.6264   -0.9871    0.7315 H   0  0  0  0  0  0  0  0  0  0  0  0
   -7.9650   -0.4453    0.1138 H   0  0  0  0  0  0  0  0  0  0  0  0
   -7.5550    0.2353    1.6956 H   0  0  0  0  0  0  0  0  0  0  0  0
   -7.6288    1.2873    0.2716 H   0  0  0  0  0  0  0  0  0  0  0  0
   -5.1191    0.9339    2.1793 H   0  0  0  0  0  0  0  0  0  0  0  0
   -5.2613    2.0517    0.8248 H   0  0  0  0  0  0  0  0  0  0  0  0
   -2.9187    1.6043    1.2682 H   0  0  0  0  0  0  0  0  0  0  0  0
   -3.1686   -0.1400    1.1908 H   0  0  0  0  0  0  0  0  0  0  0  0
    5.6991    0.8766    0.9958 H   0  0  0  0  0  0  0  0  0  0  0  0
  1  2  1  0
  2  3  1  0
  3  4  2  0
  4  5  1  0
  5  6  2  0
  6  7  1  0
  7  8  1  0
  8  9  2  0
  9 10  1  0
 10 11  1  0
 11 12  1  0
 12 13  1  0
 13 14  1  0
 14 15  1  0
 15 16  1  0
 16 17  1  0
 17 18  1  0
 18 19  1  0
 19 20  1  0
 19 21  1  0
 21 22  1  0
 11 23  2  0
  7 24  2  0
 24  3  1  0
 23  8  1  0
 22 16  1  0
  1 25  1  0
  1 26  1  0
  1 27  1  0
  4 28  1  0
  5 29  1  0
  6 30  1  0
 12 31  1  0
 13 32  1  0
 13 33  1  0
 14 34  1  0
 14 35  1  0
 15 36  1  0
 15 37  1  0
 17 38  1  0
 17 39  1  0
 18 40  1  0
 18 41  1  0
 19 42  1  0
 20 43  1  0
 20 44  1  0
 20 45  1  0
 21 46  1  0
 21 47  1  0
 22 48  1  0
 22 49  1  0
 24 50  1  0
M  END
$$$$
