
     RDKit          3D

 52 54  0  0  0  0  0  0  0  0999 V2000
   -4.8166   -3.6363    1.9781 C   0  0  0  0  0  0  0  0  0  0  0  0
   -5.0436   -2.7172    0.9198 O   0  0  0  0  0  0  0  0  0  0  0  0
   -4.3759   -1.5181    0.9626 C   0  0  0  0  0  0  0  0  0  0  0  0
   -3.4363   -1.1713    1.9388 C   0  0  0  0  0  0  0  0  0  0  0  0
   -2.8006    0.0723    1.9007 C   0  0  0  0  0  0  0  0  0  0  0  0
   -3.0968    0.9891    0.8882 C   0  0  0  0  0  0  0  0  0  0  0  0
   -2.3910    2.3213    0.8300 C   0  0  0  0  0  0  0  0  0  0  0  0
   -1.2069    2.2905   -0.1396 C   0  0  0  0  0  0  0  0  0  0  0  0
   -0.5223    3.5949   -0.1130 N   0  0  0  0  0  0  0  0  0  0  0  0
    0.5140    3.9487   -1.3970 S   0  0  0  0  0  6  0  0  0  0  0  0
   -0.1887    3.6931   -2.6346 O   0  0  0  0  0  0  0  0  0  0  0  0
    1.1300    5.2227   -1.1066 O   0  0  0  0  0  0  0  0  0  0  0  0
    1.8486    2.7730   -1.3835 C   0  0  0  0  0  0  0  0  0  0  0  0
    2.4342    2.0290   -2.3877 C   0  0  0  0  0  0  0  0  0  0  0  0
    3.4917    1.2053   -1.9029 C   0  0  0  0  0  0  0  0  0  0  0  0
    3.6689    1.3221   -0.5362 C   0  0  0  0  0  0  0  0  0  0  0  0
    4.6241    0.6690    0.3505 C   0  0  0  0  0  0  0  0  0  0  0  0
    5.1864    1.2711    1.2665 O   0  0  0  0  0  0  0  0  0  0  0  0
    4.8863   -0.6803    0.1446 N   0  0  0  0  0  0  0  0  0  0  0  0
    5.8400   -1.3740    0.9939 C   0  0  0  0  0  0  0  0  0  0  0  0
    5.8852   -2.7886    0.4380 C   0  0  0  0  0  0  0  0  0  0  0  0
    4.4639   -2.9892   -0.0707 C   0  0  0  0  0  0  0  0  0  0  0  0
    4.1162   -1.6246   -0.6535 C   0  0  0  0  0  0  0  0  0  0  0  0
    2.5930    2.4849    0.1271 S   0  0  0  0  0  0  0  0  0  0  0  0
   -4.0373    0.6419   -0.0937 C   0  0  0  0  0  0  0  0  0  0  0  0
   -4.6792   -0.6027   -0.0648 C   0  0  0  0  0  0  0  0  0  0  0  0
   -5.6061   -1.0188   -0.9888 O   0  0  0  0  0  0  0  0  0  0  0  0
   -5.9821   -0.1023   -2.0065 C   0  0  0  0  0  0  0  0  0  0  0  0
   -5.1033   -3.2078    2.9442 H   0  0  0  0  0  0  0  0  0  0  0  0
   -3.7759   -3.9764    1.9882 H   0  0  0  0  0  0  0  0  0  0  0  0
   -5.4495   -4.5116    1.8025 H   0  0  0  0  0  0  0  0  0  0  0  0
   -3.1742   -1.8489    2.7442 H   0  0  0  0  0  0  0  0  0  0  0  0
   -2.0734    0.3166    2.6722 H   0  0  0  0  0  0  0  0  0  0  0  0
   -3.1049    3.1006    0.5328 H   0  0  0  0  0  0  0  0  0  0  0  0
   -2.0492    2.6035    1.8344 H   0  0  0  0  0  0  0  0  0  0  0  0
   -1.5673    2.0677   -1.1495 H   0  0  0  0  0  0  0  0  0  0  0  0
   -0.5022    1.5054    0.1549 H   0  0  0  0  0  0  0  0  0  0  0  0
   -0.0920    3.8519    0.7763 H   0  0  0  0  0  0  0  0  0  0  0  0
    2.1188    2.0906   -3.4235 H   0  0  0  0  0  0  0  0  0  0  0  0
    4.1005    0.5714   -2.5360 H   0  0  0  0  0  0  0  0  0  0  0  0
    6.8130   -0.8740    0.9716 H   0  0  0  0  0  0  0  0  0  0  0  0
    5.4567   -1.3623    2.0208 H   0  0  0  0  0  0  0  0  0  0  0  0
    6.5907   -2.8435   -0.3998 H   0  0  0  0  0  0  0  0  0  0  0  0
    6.1811   -3.5276    1.1873 H   0  0  0  0  0  0  0  0  0  0  0  0
    4.3804   -3.7951   -0.8049 H   0  0  0  0  0  0  0  0  0  0  0  0
    3.7982   -3.2188    0.7702 H   0  0  0  0  0  0  0  0  0  0  0  0
    3.0445   -1.4128   -0.6063 H   0  0  0  0  0  0  0  0  0  0  0  0
    4.4635   -1.5544   -1.6891 H   0  0  0  0  0  0  0  0  0  0  0  0
   -4.2523    1.3629   -0.8767 H   0  0  0  0  0  0  0  0  0  0  0  0
   -6.4292    0.8018   -1.5800 H   0  0  0  0  0  0  0  0  0  0  0  0
   -5.1316    0.1416   -2.6515 H   0  0  0  0  0  0  0  0  0  0  0  0
   -6.7415   -0.5862   -2.6283 H   0  0  0  0  0  0  0  0  0  0  0  0
  1  2  1  0
  2  3  1  0
  3  4  2  0
  4  5  1  0
  5  6  2  0
  6  7  1  0
  7  8  1  0
  8  9  1  0
  9 10  1  0
 10 11  2  0
 10 12  2  0
 10 13  1  0
 13 14  2  0
 14 15  1  0
 15 16  2  0
 16 17  1  0
 17 18  2  0
 17 19  1  0
 19 20  1  0
 20 21  1  0
 21 22  1  0
 22 23  1  0
 16 24  1  0
  6 25  1  0
 25 26  2  0
 26 27  1  0
 27 28  1  0
 26  3  1  0
 24 13  1  0
 23 19  1  0
  1 29  1  0
  1 30  1  0
  1 31  1  0
  4 32  1  0
  5 33  1  0
  7 34  1  0
  7 35  1  0
  8 36  1  0
  8 37  1  0
  9 38  1  0
 14 39  1  0
 15 40  1  0
 20 41  1  0
 20 42  1  0
 21 43  1  0
 21 44  1  0
 22 45  1  0
 22 46  1  0
 23 47  1  0
 23 48  1  0
 25 49  1  0
 28 50  1  0
 28 51  1  0
 28 52  1  0
M  END
$$$$
