
     RDKit          3D

 54 57  0  0  0  0  0  0  0  0999 V2000
   -8.8996   -0.8275   -0.3447 C   0  0  0  0  0  0  0  0  0  0  0  0
   -7.9696    0.2188   -0.9007 C   0  0  0  0  0  0  0  0  0  0  0  0
   -8.3992    1.1700   -1.5507 O   0  0  0  0  0  0  0  0  0  0  0  0
   -6.5035    0.0890   -0.6508 C   0  0  0  0  0  0  0  0  0  0  0  0
   -5.9603   -0.9601    0.0914 C   0  0  0  0  0  0  0  0  0  0  0  0
   -4.5755   -1.0307    0.2941 C   0  0  0  0  0  0  0  0  0  0  0  0
   -3.6961   -0.0660   -0.2267 C   0  0  0  0  0  0  0  0  0  0  0  0
   -2.3179   -0.2024    0.0034 N   0  0  0  0  0  0  0  0  0  0  0  0
   -1.3957    0.5560   -0.8661 C   0  0  0  0  0  0  0  0  0  0  0  0
    0.0561    0.0812   -0.6643 C   0  0  0  0  0  0  0  0  0  0  0  0
    0.4655    0.0679    0.7485 N   0  0  0  0  0  0  0  0  0  0  0  0
    1.7917    0.1268    1.1694 C   0  0  0  0  0  0  0  0  0  0  0  0
    2.1116   -0.1068    2.3354 O   0  0  0  0  0  0  0  0  0  0  0  0
    2.8198    0.5612    0.1432 C   0  0  0  0  0  0  0  0  0  0  0  0
    4.2464    0.4543    0.6936 C   0  0  0  0  0  0  0  0  0  0  0  0
    4.7422   -0.9570    0.8103 C   0  0  0  0  0  0  0  0  0  0  0  0
    5.5415   -1.5947    1.7389 C   0  0  0  0  0  0  0  0  0  0  0  0
    5.6570   -2.9397    1.3145 C   0  0  0  0  0  0  0  0  0  0  0  0
    4.9219   -3.0411    0.1578 C   0  0  0  0  0  0  0  0  0  0  0  0
    4.3610   -1.8460   -0.1563 O   0  0  0  0  0  0  0  0  0  0  0  0
    5.1784    1.2437   -0.1287 N   0  0  0  0  0  0  0  0  0  0  0  0
    5.4856    1.0239   -1.4502 C   0  0  0  0  0  0  0  0  0  0  0  0
    6.3577    2.0088   -1.8581 C   0  0  0  0  0  0  0  0  0  0  0  0
    6.5818    2.8595   -0.7511 C   0  0  0  0  0  0  0  0  0  0  0  0
    5.8407    2.3692    0.3016 C   0  0  0  0  0  0  0  0  0  0  0  0
   -0.5007   -0.5571    1.6615 C   0  0  0  0  0  0  0  0  0  0  0  0
   -1.9489   -0.0884    1.4367 C   0  0  0  0  0  0  0  0  0  0  0  0
   -4.2610    0.9718   -0.9789 C   0  0  0  0  0  0  0  0  0  0  0  0
   -5.6448    1.0538   -1.1855 C   0  0  0  0  0  0  0  0  0  0  0  0
   -8.6592   -1.8088   -0.7618 H   0  0  0  0  0  0  0  0  0  0  0  0
   -8.8443   -0.8421    0.7468 H   0  0  0  0  0  0  0  0  0  0  0  0
   -9.9277   -0.5818   -0.6290 H   0  0  0  0  0  0  0  0  0  0  0  0
   -6.5809   -1.7415    0.5186 H   0  0  0  0  0  0  0  0  0  0  0  0
   -4.1753   -1.8760    0.8504 H   0  0  0  0  0  0  0  0  0  0  0  0
   -1.6562    0.4157   -1.9222 H   0  0  0  0  0  0  0  0  0  0  0  0
   -1.4537    1.6270   -0.6318 H   0  0  0  0  0  0  0  0  0  0  0  0
    0.1748   -0.9432   -1.0377 H   0  0  0  0  0  0  0  0  0  0  0  0
    0.7163    0.7277   -1.2485 H   0  0  0  0  0  0  0  0  0  0  0  0
    2.7137   -0.0434   -0.7641 H   0  0  0  0  0  0  0  0  0  0  0  0
    2.5969    1.6049   -0.1133 H   0  0  0  0  0  0  0  0  0  0  0  0
    4.2862    0.9091    1.6930 H   0  0  0  0  0  0  0  0  0  0  0  0
    5.9839   -1.1403    2.6148 H   0  0  0  0  0  0  0  0  0  0  0  0
    6.2074   -3.7374    1.7928 H   0  0  0  0  0  0  0  0  0  0  0  0
    4.7093   -3.8517   -0.5251 H   0  0  0  0  0  0  0  0  0  0  0  0
    5.0712    0.1812   -1.9890 H   0  0  0  0  0  0  0  0  0  0  0  0
    6.7882    2.1010   -2.8468 H   0  0  0  0  0  0  0  0  0  0  0  0
    7.2169    3.7354   -0.7229 H   0  0  0  0  0  0  0  0  0  0  0  0
    5.7367    2.7294    1.3171 H   0  0  0  0  0  0  0  0  0  0  0  0
   -0.4312   -1.6400    1.4977 H   0  0  0  0  0  0  0  0  0  0  0  0
   -0.2198   -0.3656    2.7027 H   0  0  0  0  0  0  0  0  0  0  0  0
   -2.6012   -0.6916    2.0783 H   0  0  0  0  0  0  0  0  0  0  0  0
   -2.0477    0.9583    1.7535 H   0  0  0  0  0  0  0  0  0  0  0  0
   -3.6451    1.7546   -1.4110 H   0  0  0  0  0  0  0  0  0  0  0  0
   -6.0453    1.8807   -1.7697 H   0  0  0  0  0  0  0  0  0  0  0  0
  1  2  1  0
  2  3  2  0
  2  4  1  0
  4  5  2  0
  5  6  1  0
  6  7  2  0
  7  8  1  0
  8  9  1  0
  9 10  1  0
 10 11  1  0
 11 12  1  0
 12 13  2  0
 12 14  1  0
 14 15  1  0
 15 16  1  0
 16 17  2  0
 17 18  1  0
 18 19  2  0
 19 20  1  0
 15 21  1  0
 21 22  1  0
 22 23  2  0
 23 24  1  0
 24 25  2  0
 11 26  1  0
 26 27  1  0
  7 28  1  0
 28 29  2  0
 29  4  1  0
 27  8  1  0
 20 16  1  0
 25 21  1  0
  1 30  1  0
  1 31  1  0
  1 32  1  0
  5 33  1  0
  6 34  1  0
  9 35  1  0
  9 36  1  0
 10 37  1  0
 10 38  1  0
 14 39  1  0
 14 40  1  0
 15 41  1  0
 17 42  1  0
 18 43  1  0
 19 44  1  0
 22 45  1  0
 23 46  1  0
 24 47  1  0
 25 48  1  0
 26 49  1  0
 26 50  1  0
 27 51  1  0
 27 52  1  0
 28 53  1  0
 29 54  1  0
M  END
$$$$
