
     RDKit          3D

 54 58  0  0  0  0  0  0  0  0999 V2000
   -0.1819   -0.2308    2.8362 O   0  0  0  0  0  0  0  0  0  0  0  0
   -0.2059   -0.4164    1.6173 C   0  0  0  0  0  0  0  0  0  0  0  0
    0.8317   -1.3145    0.9488 C   0  0  0  0  0  0  0  0  0  0  0  0
    1.5920   -2.1544    1.9908 C   0  0  0  0  0  0  0  0  0  0  0  0
    2.7034   -3.0055    1.3631 C   0  0  0  0  0  0  0  0  0  0  0  0
    2.9680   -2.6665   -0.1010 C   0  0  0  0  0  0  0  0  0  0  0  0
    2.9988   -1.2234   -0.2771 N   0  0  0  0  0  0  0  0  0  0  0  0
    4.1008   -0.5213   -0.6837 C   0  0  0  0  0  0  0  0  0  0  0  0
    4.0554    0.7720   -0.9290 N   0  0  0  0  0  0  0  0  0  0  0  0
    5.3016    1.2502   -1.2875 C   0  0  0  0  0  0  0  0  0  0  0  0
    5.6577    2.5691   -1.6194 C   0  0  0  0  0  0  0  0  0  0  0  0
    6.9912    2.8279   -1.9416 C   0  0  0  0  0  0  0  0  0  0  0  0
    7.8983    1.7787   -1.9249 C   0  0  0  0  0  0  0  0  0  0  0  0
    7.6087    0.4928   -1.6227 N   0  0  0  0  0  0  0  0  0  0  0  0
    6.3071    0.2970   -1.3158 C   0  0  0  0  0  0  0  0  0  0  0  0
    5.6749   -1.2190   -0.8981 S   0  0  0  0  0  0  0  0  0  0  0  0
    1.8339   -0.4497    0.1734 C   0  0  0  0  0  0  0  0  0  0  0  0
   -1.1598    0.2044    0.8274 N   0  0  0  0  0  0  0  0  0  0  0  0
   -1.4075   -0.0207   -0.6073 C   0  0  0  0  0  0  0  0  0  0  0  0
   -2.9119   -0.1529   -0.9235 C   0  0  0  0  0  0  0  0  0  0  0  0
   -3.7117    0.9826   -0.4013 N   0  0  0  0  0  0  0  0  0  0  0  0
   -5.0649    0.6773   -0.1876 C   0  0  0  0  0  0  0  0  0  0  0  0
   -5.8165    0.0718   -1.2128 C   0  0  0  0  0  0  0  0  0  0  0  0
   -7.1646   -0.2656   -1.0460 C   0  0  0  0  0  0  0  0  0  0  0  0
   -7.8035    0.0068    0.1582 C   0  0  0  0  0  0  0  0  0  0  0  0
   -7.0937    0.6187    1.1864 C   0  0  0  0  0  0  0  0  0  0  0  0
   -5.7437    0.9506    1.0125 C   0  0  0  0  0  0  0  0  0  0  0  0
   -2.9925    1.8883    0.5188 C   0  0  0  0  0  0  0  0  0  0  0  0
   -2.1139    1.0992    1.5011 C   0  0  0  0  0  0  0  0  0  0  0  0
    0.3138   -2.0175    0.2860 H   0  0  0  0  0  0  0  0  0  0  0  0
    0.8952   -2.8009    2.5441 H   0  0  0  0  0  0  0  0  0  0  0  0
    2.0475   -1.4919    2.7424 H   0  0  0  0  0  0  0  0  0  0  0  0
    2.4434   -4.0688    1.4415 H   0  0  0  0  0  0  0  0  0  0  0  0
    3.6243   -2.8700    1.9464 H   0  0  0  0  0  0  0  0  0  0  0  0
    3.8764   -3.1810   -0.4319 H   0  0  0  0  0  0  0  0  0  0  0  0
    2.1635   -3.0767   -0.7262 H   0  0  0  0  0  0  0  0  0  0  0  0
    4.9118    3.3536   -1.6221 H   0  0  0  0  0  0  0  0  0  0  0  0
    7.3160    3.8340   -2.1930 H   0  0  0  0  0  0  0  0  0  0  0  0
    8.9450    1.9603   -2.1680 H   0  0  0  0  0  0  0  0  0  0  0  0
    2.1664    0.3734    0.8240 H   0  0  0  0  0  0  0  0  0  0  0  0
    1.3547    0.0123   -0.6986 H   0  0  0  0  0  0  0  0  0  0  0  0
   -0.8874   -0.9092   -0.9710 H   0  0  0  0  0  0  0  0  0  0  0  0
   -0.9891    0.8447   -1.1377 H   0  0  0  0  0  0  0  0  0  0  0  0
   -3.0382   -0.2210   -2.0078 H   0  0  0  0  0  0  0  0  0  0  0  0
   -3.2617   -1.0921   -0.4785 H   0  0  0  0  0  0  0  0  0  0  0  0
   -5.3547   -0.1267   -2.1795 H   0  0  0  0  0  0  0  0  0  0  0  0
   -7.7117   -0.7332   -1.8619 H   0  0  0  0  0  0  0  0  0  0  0  0
   -8.8483   -0.2559    0.2942 H   0  0  0  0  0  0  0  0  0  0  0  0
   -7.5846    0.8407    2.1303 H   0  0  0  0  0  0  0  0  0  0  0  0
   -5.2350    1.4027    1.8590 H   0  0  0  0  0  0  0  0  0  0  0  0
   -2.3493    2.5349   -0.0916 H   0  0  0  0  0  0  0  0  0  0  0  0
   -3.6578    2.5762    1.0523 H   0  0  0  0  0  0  0  0  0  0  0  0
   -2.7374    0.4742    2.1529 H   0  0  0  0  0  0  0  0  0  0  0  0
   -1.5538    1.7913    2.1399 H   0  0  0  0  0  0  0  0  0  0  0  0
  1  2  2  0
  2  3  1  0
  3  4  1  0
  4  5  1  0
  5  6  1  0
  6  7  1  0
  7  8  1  0
  8  9  2  0
  9 10  1  0
 10 11  2  0
 11 12  1  0
 12 13  2  0
 13 14  1  0
 14 15  2  0
 15 16  1  0
  7 17  1  0
  2 18  1  0
 18 19  1  0
 19 20  1  0
 20 21  1  0
 21 22  1  0
 22 23  2  0
 23 24  1  0
 24 25  2  0
 25 26  1  0
 26 27  2  0
 21 28  1  0
 28 29  1  0
 17  3  1  0
 29 18  1  0
 16  8  1  0
 27 22  1  0
 15 10  1  0
  3 30  1  0
  4 31  1  0
  4 32  1  0
  5 33  1  0
  5 34  1  0
  6 35  1  0
  6 36  1  0
 11 37  1  0
 12 38  1  0
 13 39  1  0
 17 40  1  0
 17 41  1  0
 19 42  1  0
 19 43  1  0
 20 44  1  0
 20 45  1  0
 23 46  1  0
 24 47  1  0
 25 48  1  0
 26 49  1  0
 27 50  1  0
 28 51  1  0
 28 52  1  0
 29 53  1  0
 29 54  1  0
M  END
$$$$
