
     RDKit          3D

 57 61  0  0  0  0  0  0  0  0999 V2000
   -8.4586    1.0495    2.4589 C   0  0  0  0  0  0  0  0  0  0  0  0
   -7.4369    0.5552    1.4800 C   0  0  0  0  0  0  0  0  0  0  0  0
   -6.0796    0.8034    1.6801 C   0  0  0  0  0  0  0  0  0  0  0  0
   -5.1331    0.3660    0.7441 C   0  0  0  0  0  0  0  0  0  0  0  0
   -5.5049   -0.3247   -0.4261 C   0  0  0  0  0  0  0  0  0  0  0  0
   -4.4966   -0.7568   -1.3641 N   0  0  0  0  0  0  0  0  0  0  0  0
   -3.2137   -0.3800   -1.0036 N   0  0  0  0  0  0  0  0  0  0  0  0
   -2.1833   -0.6928   -1.7434 C   0  0  0  0  0  0  0  0  0  0  0  0
   -0.9178   -0.2933   -1.3236 N   0  0  0  0  0  0  0  0  0  0  0  0
    0.3338   -0.8498   -1.8555 C   0  0  0  0  0  0  0  0  0  0  0  0
    1.4864   -0.8223   -0.8340 C   0  0  0  0  0  0  0  0  0  0  0  0
    1.7045    0.4981   -0.2399 N   0  0  0  0  0  0  0  0  0  0  0  0
    2.9181    0.9612    0.2809 C   0  0  0  0  0  0  0  0  0  0  0  0
    3.0556    2.1583    0.5468 O   0  0  0  0  0  0  0  0  0  0  0  0
    4.0364    0.0123    0.5165 C   0  0  0  0  0  0  0  0  0  0  0  0
    3.8911   -1.3305    0.5939 N   0  0  0  0  0  0  0  0  0  0  0  0
    5.1240   -1.8030    0.8463 N   0  0  0  0  0  0  0  0  0  0  0  0
    6.0621   -0.8273    0.9269 C   0  0  0  0  0  0  0  0  0  0  0  0
    5.4005    0.3642    0.7444 C   0  0  0  0  0  0  0  0  0  0  0  0
    6.0956    1.6811    0.7715 C   0  0  0  0  0  0  0  0  0  0  0  0
    7.5106    1.5456    1.3746 C   0  0  0  0  0  0  0  0  0  0  0  0
    8.2558    0.2957    0.8642 C   0  0  0  0  0  0  0  0  0  0  0  0
    7.5073   -1.0093    1.2007 C   0  0  0  0  0  0  0  0  0  0  0  0
    0.5629    1.4100   -0.2627 C   0  0  0  0  0  0  0  0  0  0  0  0
   -0.7807    0.6697   -0.2135 C   0  0  0  0  0  0  0  0  0  0  0  0
   -2.3614   -1.4416   -3.0102 C   0  0  0  0  0  0  0  0  0  0  0  0
   -3.5901   -1.8119   -3.3593 C   0  0  0  0  0  0  0  0  0  0  0  0
   -4.7627   -1.4933   -2.5209 C   0  0  0  0  0  0  0  0  0  0  0  0
   -5.8452   -1.9074   -2.9315 O   0  0  0  0  0  0  0  0  0  0  0  0
   -6.8756   -0.5490   -0.6153 C   0  0  0  0  0  0  0  0  0  0  0  0
   -7.8279   -0.1128    0.3189 C   0  0  0  0  0  0  0  0  0  0  0  0
   -8.7784    2.0605    2.1877 H   0  0  0  0  0  0  0  0  0  0  0  0
   -8.0497    1.0680    3.4749 H   0  0  0  0  0  0  0  0  0  0  0  0
   -9.3351    0.3929    2.4739 H   0  0  0  0  0  0  0  0  0  0  0  0
   -5.7405    1.3365    2.5650 H   0  0  0  0  0  0  0  0  0  0  0  0
   -4.0870    0.5769    0.9514 H   0  0  0  0  0  0  0  0  0  0  0  0
    0.6179   -0.2728   -2.7436 H   0  0  0  0  0  0  0  0  0  0  0  0
    0.1944   -1.8922   -2.1629 H   0  0  0  0  0  0  0  0  0  0  0  0
    1.2609   -1.5110   -0.0111 H   0  0  0  0  0  0  0  0  0  0  0  0
    2.3955   -1.1571   -1.3418 H   0  0  0  0  0  0  0  0  0  0  0  0
    5.2448   -2.8048    0.9547 H   0  0  0  0  0  0  0  0  0  0  0  0
    6.1731    2.0611   -0.2543 H   0  0  0  0  0  0  0  0  0  0  0  0
    5.5281    2.4130    1.3555 H   0  0  0  0  0  0  0  0  0  0  0  0
    8.0911    2.4464    1.1451 H   0  0  0  0  0  0  0  0  0  0  0  0
    7.4331    1.4864    2.4680 H   0  0  0  0  0  0  0  0  0  0  0  0
    8.3759    0.3768   -0.2240 H   0  0  0  0  0  0  0  0  0  0  0  0
    9.2629    0.2593    1.2945 H   0  0  0  0  0  0  0  0  0  0  0  0
    7.6466   -1.2483    2.2617 H   0  0  0  0  0  0  0  0  0  0  0  0
    7.9200   -1.8369    0.6137 H   0  0  0  0  0  0  0  0  0  0  0  0
    0.6271    2.1108    0.5769 H   0  0  0  0  0  0  0  0  0  0  0  0
    0.6395    1.9931   -1.1886 H   0  0  0  0  0  0  0  0  0  0  0  0
   -1.5792    1.4198   -0.2560 H   0  0  0  0  0  0  0  0  0  0  0  0
   -0.8751    0.1285    0.7357 H   0  0  0  0  0  0  0  0  0  0  0  0
   -1.5114   -1.6549   -3.6396 H   0  0  0  0  0  0  0  0  0  0  0  0
   -3.7901   -2.3540   -4.2745 H   0  0  0  0  0  0  0  0  0  0  0  0
   -7.2598   -1.0587   -1.4917 H   0  0  0  0  0  0  0  0  0  0  0  0
   -8.8809   -0.3040    0.1228 H   0  0  0  0  0  0  0  0  0  0  0  0
  1  2  1  0
  2  3  2  0
  3  4  1  0
  4  5  2  0
  5  6  1  0
  6  7  1  0
  7  8  2  0
  8  9  1  0
  9 10  1  0
 10 11  1  0
 11 12  1  0
 12 13  1  0
 13 14  2  0
 13 15  1  0
 15 16  2  0
 16 17  1  0
 17 18  1  0
 18 19  2  0
 19 20  1  0
 20 21  1  0
 21 22  1  0
 22 23  1  0
 12 24  1  0
 24 25  1  0
  8 26  1  0
 26 27  2  0
 27 28  1  0
 28 29  2  0
  5 30  1  0
 30 31  2  0
 31  2  1  0
 28  6  1  0
 25  9  1  0
 19 15  1  0
 23 18  1  0
  1 32  1  0
  1 33  1  0
  1 34  1  0
  3 35  1  0
  4 36  1  0
 10 37  1  0
 10 38  1  0
 11 39  1  0
 11 40  1  0
 17 41  1  0
 20 42  1  0
 20 43  1  0
 21 44  1  0
 21 45  1  0
 22 46  1  0
 22 47  1  0
 23 48  1  0
 23 49  1  0
 24 50  1  0
 24 51  1  0
 25 52  1  0
 25 53  1  0
 26 54  1  0
 27 55  1  0
 30 56  1  0
 31 57  1  0
M  END
$$$$
