
     RDKit          3D

 53 56  0  0  0  0  0  0  0  0999 V2000
    8.3731   -1.2406    2.1526 C   0  0  0  0  0  0  0  0  0  0  0  0
    7.0872   -0.8320    1.4969 C   0  0  0  0  0  0  0  0  0  0  0  0
    6.9762   -0.8195    0.1011 C   0  0  0  0  0  0  0  0  0  0  0  0
    5.7879   -0.4147   -0.5123 C   0  0  0  0  0  0  0  0  0  0  0  0
    4.6956   -0.0281    0.2675 C   0  0  0  0  0  0  0  0  0  0  0  0
    3.4735    0.4720   -0.3105 N   0  0  0  0  0  0  0  0  0  0  0  0
    3.5791    1.8619   -0.8149 C   0  0  0  0  0  0  0  0  0  0  0  0
    2.6994   -0.6309   -1.3771 S   0  0  0  0  0  6  0  0  0  0  0  0
    3.2813   -0.4608   -2.6948 O   0  0  0  0  0  0  0  0  0  0  0  0
    2.6236   -1.9349   -0.7528 O   0  0  0  0  0  0  0  0  0  0  0  0
    1.0406    0.0077   -1.4279 C   0  0  0  0  0  0  0  0  0  0  0  0
    0.5225    0.5331   -2.6156 C   0  0  0  0  0  0  0  0  0  0  0  0
   -0.7814    1.0305   -2.6306 C   0  0  0  0  0  0  0  0  0  0  0  0
   -1.5562    0.9945   -1.4701 C   0  0  0  0  0  0  0  0  0  0  0  0
   -1.0244    0.4794   -0.2847 C   0  0  0  0  0  0  0  0  0  0  0  0
    0.2703   -0.0319   -0.2619 C   0  0  0  0  0  0  0  0  0  0  0  0
   -1.7201    0.4343    0.8924 O   0  0  0  0  0  0  0  0  0  0  0  0
   -2.8911    1.2557    0.8538 C   0  0  0  0  0  0  0  0  0  0  0  0
   -3.6586    1.1376   -0.4611 C   0  0  0  0  0  0  0  0  0  0  0  0
   -4.3391   -0.2430   -0.5921 C   0  0  0  0  0  0  0  0  0  0  0  0
   -3.8643   -1.1391   -1.2933 O   0  0  0  0  0  0  0  0  0  0  0  0
   -5.5182   -0.4426    0.1061 N   0  0  0  0  0  0  0  0  0  0  0  0
   -6.2127   -1.7195    0.0291 C   0  0  0  0  0  0  0  0  0  0  0  0
   -7.6182   -1.4274    0.5364 C   0  0  0  0  0  0  0  0  0  0  0  0
   -7.4013   -0.2704    1.5021 C   0  0  0  0  0  0  0  0  0  0  0  0
   -6.3214    0.5465    0.8086 C   0  0  0  0  0  0  0  0  0  0  0  0
   -2.8311    1.4821   -1.5746 O   0  0  0  0  0  0  0  0  0  0  0  0
    4.8135    0.0010    1.6574 C   0  0  0  0  0  0  0  0  0  0  0  0
    6.0018   -0.4032    2.2703 C   0  0  0  0  0  0  0  0  0  0  0  0
    8.8966   -1.9915    1.5514 H   0  0  0  0  0  0  0  0  0  0  0  0
    9.0236   -0.3693    2.2758 H   0  0  0  0  0  0  0  0  0  0  0  0
    8.1861   -1.6851    3.1358 H   0  0  0  0  0  0  0  0  0  0  0  0
    7.8150   -1.1265   -0.5200 H   0  0  0  0  0  0  0  0  0  0  0  0
    5.7296   -0.4074   -1.5974 H   0  0  0  0  0  0  0  0  0  0  0  0
    2.5901    2.2707   -1.0373 H   0  0  0  0  0  0  0  0  0  0  0  0
    4.2047    1.9164   -1.7111 H   0  0  0  0  0  0  0  0  0  0  0  0
    4.0199    2.5080   -0.0474 H   0  0  0  0  0  0  0  0  0  0  0  0
    1.1152    0.5487   -3.5273 H   0  0  0  0  0  0  0  0  0  0  0  0
   -1.2030    1.4263   -3.5509 H   0  0  0  0  0  0  0  0  0  0  0  0
    0.6743   -0.4530    0.6554 H   0  0  0  0  0  0  0  0  0  0  0  0
   -2.5726    2.2938    1.0154 H   0  0  0  0  0  0  0  0  0  0  0  0
   -3.5066    0.9666    1.7101 H   0  0  0  0  0  0  0  0  0  0  0  0
   -4.4554    1.8896   -0.4632 H   0  0  0  0  0  0  0  0  0  0  0  0
   -6.2107   -2.1155   -0.9909 H   0  0  0  0  0  0  0  0  0  0  0  0
   -5.6884   -2.4224    0.6858 H   0  0  0  0  0  0  0  0  0  0  0  0
   -8.2557   -1.1008   -0.2942 H   0  0  0  0  0  0  0  0  0  0  0  0
   -8.0862   -2.2968    1.0060 H   0  0  0  0  0  0  0  0  0  0  0  0
   -7.0281   -0.6523    2.4600 H   0  0  0  0  0  0  0  0  0  0  0  0
   -8.3106    0.3063    1.6914 H   0  0  0  0  0  0  0  0  0  0  0  0
   -5.7233    1.1304    1.5105 H   0  0  0  0  0  0  0  0  0  0  0  0
   -6.7523    1.2210    0.0603 H   0  0  0  0  0  0  0  0  0  0  0  0
    3.9772    0.3289    2.2681 H   0  0  0  0  0  0  0  0  0  0  0  0
    6.0731   -0.3837    3.3554 H   0  0  0  0  0  0  0  0  0  0  0  0
  1  2  1  0
  2  3  2  0
  3  4  1  0
  4  5  2  0
  5  6  1  0
  6  7  1  0
  6  8  1  0
  8  9  2  0
  8 10  2  0
  8 11  1  0
 11 12  2  0
 12 13  1  0
 13 14  2  0
 14 15  1  0
 15 16  2  0
 15 17  1  0
 17 18  1  0
 18 19  1  0
 19 20  1  0
 20 21  2  0
 20 22  1  0
 22 23  1  0
 23 24  1  0
 24 25  1  0
 25 26  1  0
 19 27  1  0
  5 28  1  0
 28 29  2  0
 29  2  1  0
 16 11  1  0
 26 22  1  0
 27 14  1  0
  1 30  1  0
  1 31  1  0
  1 32  1  0
  3 33  1  0
  4 34  1  0
  7 35  1  0
  7 36  1  0
  7 37  1  0
 12 38  1  0
 13 39  1  0
 16 40  1  0
 18 41  1  0
 18 42  1  0
 19 43  1  0
 23 44  1  0
 23 45  1  0
 24 46  1  0
 24 47  1  0
 25 48  1  0
 25 49  1  0
 26 50  1  0
 26 51  1  0
 28 52  1  0
 29 53  1  0
M  END
$$$$
