
     RDKit          3D

 32 34  0  0  0  0  0  0  0  0999 V2000
   -4.3828    2.4740    3.2978 C   0  0  0  0  0  0  0  0  0  0  0  0
   -3.4180    1.7118    2.4753 C   0  0  0  0  0  0  0  0  0  0  0  0
   -3.1042    1.8727    1.1082 C   0  0  0  0  0  0  0  0  0  0  0  0
   -2.1510    0.9110    0.8352 C   0  0  0  0  0  0  0  0  0  0  0  0
   -1.4732    0.6253   -0.4004 C   0  0  0  0  0  0  0  0  0  0  0  0
   -1.5466    1.3284   -1.5878 C   0  0  0  0  0  0  0  0  0  0  0  0
   -0.7246    0.7625   -2.6061 C   0  0  0  0  0  0  0  0  0  0  0  0
   -0.0464   -0.3602   -2.1716 C   0  0  0  0  0  0  0  0  0  0  0  0
    1.1025   -1.4420   -3.0041 S   0  0  0  0  0  6  0  0  0  0  0  0
    0.7084   -2.7940   -2.6833 O   0  0  0  0  0  0  0  0  0  0  0  0
    1.0905   -0.9547   -4.3686 O   0  0  0  0  0  0  0  0  0  0  0  0
    2.6586   -1.1212   -2.4268 N   0  0  0  0  0  0  0  0  0  0  0  0
    2.9653   -1.4122   -1.0641 C   0  0  0  0  0  0  0  0  0  0  0  0
    3.4088   -0.3850   -0.2336 C   0  0  0  0  0  0  0  0  0  0  0  0
    3.7059   -0.6614    1.0998 C   0  0  0  0  0  0  0  0  0  0  0  0
    3.5609   -1.9632    1.5523 C   0  0  0  0  0  0  0  0  0  0  0  0
    3.1532   -2.9852    0.7709 N   0  0  0  0  0  0  0  0  0  0  0  0
    2.8641   -2.6896   -0.5201 C   0  0  0  0  0  0  0  0  0  0  0  0
   -0.4232   -0.7214   -0.5457 S   0  0  0  0  0  0  0  0  0  0  0  0
   -1.9214    0.2206    1.9976 O   0  0  0  0  0  0  0  0  0  0  0  0
   -2.7052    0.7221    3.0188 N   0  0  0  0  0  0  0  0  0  0  0  0
   -5.1514    1.8091    3.7050 H   0  0  0  0  0  0  0  0  0  0  0  0
   -3.8730    2.9666    4.1321 H   0  0  0  0  0  0  0  0  0  0  0  0
   -4.8836    3.2459    2.7047 H   0  0  0  0  0  0  0  0  0  0  0  0
   -3.5213    2.5899    0.4180 H   0  0  0  0  0  0  0  0  0  0  0  0
   -2.1573    2.2119   -1.7306 H   0  0  0  0  0  0  0  0  0  0  0  0
   -0.6336    1.1500   -3.6148 H   0  0  0  0  0  0  0  0  0  0  0  0
    3.0099   -0.2394   -2.7960 H   0  0  0  0  0  0  0  0  0  0  0  0
    3.5173    0.6302   -0.6018 H   0  0  0  0  0  0  0  0  0  0  0  0
    4.0417    0.1200    1.7727 H   0  0  0  0  0  0  0  0  0  0  0  0
    3.7773   -2.2268    2.5840 H   0  0  0  0  0  0  0  0  0  0  0  0
    2.5523   -3.5419   -1.1173 H   0  0  0  0  0  0  0  0  0  0  0  0
  1  2  1  0
  2  3  1  0
  3  4  2  0
  4  5  1  0
  5  6  2  0
  6  7  1  0
  7  8  2  0
  8  9  1  0
  9 10  2  0
  9 11  2  0
  9 12  1  0
 12 13  1  0
 13 14  2  0
 14 15  1  0
 15 16  2  0
 16 17  1  0
 17 18  2  0
  8 19  1  0
  4 20  1  0
 20 21  1  0
 21  2  2  0
 19  5  1  0
 18 13  1  0
  1 22  1  0
  1 23  1  0
  1 24  1  0
  3 25  1  0
  6 26  1  0
  7 27  1  0
 12 28  1  0
 14 29  1  0
 15 30  1  0
 16 31  1  0
 18 32  1  0
M  END
$$$$
