
     RDKit          3D

 42 44  0  0  0  0  0  0  0  0999 V2000
    6.1523    1.6493   -1.0681 C   0  0  0  0  0  0  0  0  0  0  0  0
    5.8994    0.6465   -0.0928 O   0  0  0  0  0  0  0  0  0  0  0  0
    4.7222   -0.0412   -0.2057 C   0  0  0  0  0  0  0  0  0  0  0  0
    4.5229   -1.0220    0.7684 C   0  0  0  0  0  0  0  0  0  0  0  0
    3.3627   -1.8001    0.7714 C   0  0  0  0  0  0  0  0  0  0  0  0
    2.3831   -1.6119   -0.2107 C   0  0  0  0  0  0  0  0  0  0  0  0
    1.1173   -2.4382   -0.2049 C   0  0  0  0  0  0  0  0  0  0  0  0
    0.0518   -1.8054    0.5616 N   0  0  0  0  0  0  0  0  0  0  0  0
   -0.7053   -0.8598   -0.1039 N   0  0  0  0  0  0  0  0  0  0  0  0
   -1.6380   -0.2535    0.5645 C   0  0  0  0  0  0  0  0  0  0  0  0
   -2.4499    0.7890   -0.1180 C   0  0  0  0  0  0  0  0  0  0  0  0
   -1.7469    1.7500   -0.8620 C   0  0  0  0  0  0  0  0  0  0  0  0
   -2.4339    2.7628   -1.5265 C   0  0  0  0  0  0  0  0  0  0  0  0
   -3.8231    2.8146   -1.4556 C   0  0  0  0  0  0  0  0  0  0  0  0
   -4.5306    1.8493   -0.7308 C   0  0  0  0  0  0  0  0  0  0  0  0
   -3.8554    0.8197   -0.0632 C   0  0  0  0  0  0  0  0  0  0  0  0
   -4.4789   -0.1777    0.6394 O   0  0  0  0  0  0  0  0  0  0  0  0
   -5.8922   -0.2842    0.5186 C   0  0  0  0  0  0  0  0  0  0  0  0
   -1.9210   -0.4867    1.9962 C   0  0  0  0  0  0  0  0  0  0  0  0
   -1.1763   -1.4009    2.6177 C   0  0  0  0  0  0  0  0  0  0  0  0
   -0.1139   -2.1328    1.8992 C   0  0  0  0  0  0  0  0  0  0  0  0
    0.5463   -2.9683    2.5132 O   0  0  0  0  0  0  0  0  0  0  0  0
    2.5800   -0.6171   -1.1779 C   0  0  0  0  0  0  0  0  0  0  0  0
    3.7434    0.1607   -1.1787 C   0  0  0  0  0  0  0  0  0  0  0  0
    5.4028    2.4462   -1.0185 H   0  0  0  0  0  0  0  0  0  0  0  0
    6.2066    1.2185   -2.0734 H   0  0  0  0  0  0  0  0  0  0  0  0
    7.1264    2.0950   -0.8445 H   0  0  0  0  0  0  0  0  0  0  0  0
    5.2762   -1.1799    1.5362 H   0  0  0  0  0  0  0  0  0  0  0  0
    3.2244   -2.5491    1.5492 H   0  0  0  0  0  0  0  0  0  0  0  0
    0.7630   -2.5950   -1.2315 H   0  0  0  0  0  0  0  0  0  0  0  0
    1.3281   -3.4349    0.2013 H   0  0  0  0  0  0  0  0  0  0  0  0
   -0.6607    1.7101   -0.9180 H   0  0  0  0  0  0  0  0  0  0  0  0
   -1.8864    3.5084   -2.0976 H   0  0  0  0  0  0  0  0  0  0  0  0
   -4.3618    3.6060   -1.9721 H   0  0  0  0  0  0  0  0  0  0  0  0
   -5.6127    1.9309   -0.7110 H   0  0  0  0  0  0  0  0  0  0  0  0
   -6.1954   -0.3989   -0.5274 H   0  0  0  0  0  0  0  0  0  0  0  0
   -6.3901    0.5718    0.9852 H   0  0  0  0  0  0  0  0  0  0  0  0
   -6.2057   -1.1841    1.0565 H   0  0  0  0  0  0  0  0  0  0  0  0
   -2.6917    0.0750    2.5052 H   0  0  0  0  0  0  0  0  0  0  0  0
   -1.3045   -1.6403    3.6648 H   0  0  0  0  0  0  0  0  0  0  0  0
    1.8171   -0.4384   -1.9333 H   0  0  0  0  0  0  0  0  0  0  0  0
    3.8487    0.9164   -1.9491 H   0  0  0  0  0  0  0  0  0  0  0  0
  1  2  1  0
  2  3  1  0
  3  4  2  0
  4  5  1  0
  5  6  2  0
  6  7  1  0
  7  8  1  0
  8  9  1  0
  9 10  2  0
 10 11  1  0
 11 12  2  0
 12 13  1  0
 13 14  2  0
 14 15  1  0
 15 16  2  0
 16 17  1  0
 17 18  1  0
 10 19  1  0
 19 20  2  0
 20 21  1  0
 21 22  2  0
  6 23  1  0
 23 24  2  0
 24  3  1  0
 21  8  1  0
 16 11  1  0
  1 25  1  0
  1 26  1  0
  1 27  1  0
  4 28  1  0
  5 29  1  0
  7 30  1  0
  7 31  1  0
 12 32  1  0
 13 33  1  0
 14 34  1  0
 15 35  1  0
 18 36  1  0
 18 37  1  0
 18 38  1  0
 19 39  1  0
 20 40  1  0
 23 41  1  0
 24 42  1  0
M  END
$$$$
