
     RDKit          3D

 54 56  0  0  0  0  0  0  0  0999 V2000
   -1.7571    1.8007    0.7989 O   0  0  0  0  0  0  0  0  0  0  0  0
   -1.4595    0.6119    0.8063 C   0  0  0  0  0  0  0  0  0  0  0  0
   -0.0363    0.1077    0.8348 C   0  0  0  0  0  0  0  0  0  0  0  0
    0.9534    1.2557    0.9240 C   0  0  0  0  0  0  0  0  0  0  0  0
    1.1663    1.9408   -0.3264 N   0  0  0  0  0  0  0  0  0  0  0  0
    2.4959    1.9816   -0.6775 C   0  0  0  0  0  0  0  0  0  0  0  0
    2.9284    2.5670   -1.6551 O   0  0  0  0  0  0  0  0  0  0  0  0
    3.2026    1.2614    0.2375 N   0  0  0  0  0  0  0  0  0  0  0  0
    4.6258    1.0007    0.1521 C   0  0  0  0  0  0  0  0  0  0  0  0
    4.9156   -0.2470   -0.6848 C   0  0  0  0  0  0  0  0  0  0  0  0
    6.3939   -0.5268   -0.7736 C   0  0  0  0  0  0  0  0  0  0  0  0
    7.1620    0.0379   -1.8006 C   0  0  0  0  0  0  0  0  0  0  0  0
    8.5348   -0.2035   -1.8696 C   0  0  0  0  0  0  0  0  0  0  0  0
    9.1517   -1.0063   -0.9120 C   0  0  0  0  0  0  0  0  0  0  0  0
    8.3972   -1.5677    0.1166 C   0  0  0  0  0  0  0  0  0  0  0  0
    7.0242   -1.3279    0.1879 C   0  0  0  0  0  0  0  0  0  0  0  0
    2.3672    0.7398    1.1854 C   0  0  0  0  0  0  0  0  0  0  0  0
    2.6816   -0.0113    2.0988 O   0  0  0  0  0  0  0  0  0  0  0  0
   -2.3942   -0.4015    0.7727 N   0  0  0  0  0  0  0  0  0  0  0  0
   -3.8343   -0.1180    0.8260 C   0  0  2  0  0  0  0  0  0  0  0  0
   -4.2592    0.1966    2.2782 C   0  0  0  0  0  0  0  0  0  0  0  0
   -5.6476    0.4563    2.4211 O   0  0  0  0  0  0  0  0  0  0  0  0
   -4.6236   -1.2952    0.2128 C   0  0  0  0  0  0  0  0  0  0  0  0
   -5.9523   -0.9019   -0.3892 C   0  0  0  0  0  0  0  0  0  0  0  0
   -6.0004   -0.1949   -1.5994 C   0  0  0  0  0  0  0  0  0  0  0  0
   -7.2257    0.1745   -2.1561 C   0  0  0  0  0  0  0  0  0  0  0  0
   -8.4143   -0.1593   -1.5104 C   0  0  0  0  0  0  0  0  0  0  0  0
   -8.3785   -0.8634   -0.3087 C   0  0  0  0  0  0  0  0  0  0  0  0
   -7.1540   -1.2349    0.2488 C   0  0  0  0  0  0  0  0  0  0  0  0
    0.0669   -0.5480    1.7079 H   0  0  0  0  0  0  0  0  0  0  0  0
    0.1409   -0.4964   -0.0634 H   0  0  0  0  0  0  0  0  0  0  0  0
    0.6980    1.9966    1.6889 H   0  0  0  0  0  0  0  0  0  0  0  0
    0.4890    2.5456   -0.7774 H   0  0  0  0  0  0  0  0  0  0  0  0
    5.0170    0.8751    1.1686 H   0  0  0  0  0  0  0  0  0  0  0  0
    5.1135    1.8767   -0.2918 H   0  0  0  0  0  0  0  0  0  0  0  0
    4.5023   -0.1317   -1.6953 H   0  0  0  0  0  0  0  0  0  0  0  0
    4.4022   -1.1185   -0.2579 H   0  0  0  0  0  0  0  0  0  0  0  0
    6.6956    0.6702   -2.5536 H   0  0  0  0  0  0  0  0  0  0  0  0
    9.1232    0.2364   -2.6707 H   0  0  0  0  0  0  0  0  0  0  0  0
   10.2209   -1.1934   -0.9667 H   0  0  0  0  0  0  0  0  0  0  0  0
    8.8787   -2.1920    0.8647 H   0  0  0  0  0  0  0  0  0  0  0  0
    6.4497   -1.7702    0.9992 H   0  0  0  0  0  0  0  0  0  0  0  0
   -2.0890   -1.3466    0.9749 H   0  0  0  0  0  0  0  0  0  0  0  0
   -4.0085    0.7830    0.2240 H   0  0  0  0  0  0  0  0  0  0  0  0
   -3.7148    1.0675    2.6590 H   0  0  0  0  0  0  0  0  0  0  0  0
   -4.0109   -0.6449    2.9347 H   0  0  0  0  0  0  0  0  0  0  0  0
   -5.8920    1.1375    1.7683 H   0  0  0  0  0  0  0  0  0  0  0  0
   -4.7590   -2.0897    0.9582 H   0  0  0  0  0  0  0  0  0  0  0  0
   -4.0345   -1.7575   -0.5919 H   0  0  0  0  0  0  0  0  0  0  0  0
   -5.0820    0.0714   -2.1186 H   0  0  0  0  0  0  0  0  0  0  0  0
   -7.2530    0.7220   -3.0947 H   0  0  0  0  0  0  0  0  0  0  0  0
   -9.3686    0.1288   -1.9434 H   0  0  0  0  0  0  0  0  0  0  0  0
   -9.3047   -1.1217    0.1982 H   0  0  0  0  0  0  0  0  0  0  0  0
   -7.1448   -1.7735    1.1944 H   0  0  0  0  0  0  0  0  0  0  0  0
  1  2  2  0
  2  3  1  0
  3  4  1  0
  4  5  1  0
  5  6  1  0
  6  7  2  0
  6  8  1  0
  8  9  1  0
  9 10  1  0
 10 11  1  0
 11 12  2  0
 12 13  1  0
 13 14  2  0
 14 15  1  0
 15 16  2  0
  8 17  1  0
 17 18  2  0
  2 19  1  0
 19 20  1  0
 20 21  1  0
 21 22  1  0
 20 23  1  0
 23 24  1  0
 24 25  2  0
 25 26  1  0
 26 27  2  0
 27 28  1  0
 28 29  2  0
 17  4  1  0
 29 24  1  0
 16 11  1  0
  3 30  1  0
  3 31  1  0
  4 32  1  0
  5 33  1  0
  9 34  1  0
  9 35  1  0
 10 36  1  0
 10 37  1  0
 12 38  1  0
 13 39  1  0
 14 40  1  0
 15 41  1  0
 16 42  1  0
 19 43  1  0
 20 44  1  6
 21 45  1  0
 21 46  1  0
 22 47  1  0
 23 48  1  0
 23 49  1  0
 25 50  1  0
 26 51  1  0
 27 52  1  0
 28 53  1  0
 29 54  1  0
M  END
$$$$
