
     RDKit          3D

 48 50  0  0  0  0  0  0  0  0999 V2000
   -7.8865   -0.4691   -0.7097 C   0  0  0  0  0  0  0  0  0  0  0  0
   -6.7554   -0.7730   -1.5162 O   0  0  0  0  0  0  0  0  0  0  0  0
   -5.5585   -0.2391   -1.1278 C   0  0  0  0  0  0  0  0  0  0  0  0
   -4.4918   -0.5088   -1.9842 C   0  0  0  0  0  0  0  0  0  0  0  0
   -3.2117   -0.0097   -1.7151 C   0  0  0  0  0  0  0  0  0  0  0  0
   -2.9538    0.7711   -0.5759 C   0  0  0  0  0  0  0  0  0  0  0  0
   -1.6628    1.2949   -0.3599 N   0  0  0  0  0  0  0  0  0  0  0  0
   -1.5631    2.6677    0.1241 C   0  0  0  0  0  0  0  0  0  0  0  0
   -0.5208    0.5582   -0.3551 C   0  0  0  0  0  0  0  0  0  0  0  0
    0.7109    0.9510   -0.1182 N   0  0  0  0  0  0  0  0  0  0  0  0
    1.4414   -0.2112   -0.2262 C   0  0  0  0  0  0  0  0  0  0  0  0
    2.8891   -0.2380   -0.0381 C   0  0  0  0  0  0  0  0  0  0  0  0
    3.5755    0.9350    0.2980 C   0  0  0  0  0  0  0  0  0  0  0  0
    4.9611    0.9246    0.4858 C   0  0  0  0  0  0  0  0  0  0  0  0
    5.6845   -0.2624    0.3403 C   0  0  0  0  0  0  0  0  0  0  0  0
    7.0433   -0.3676    0.5045 O   0  0  0  0  0  0  0  0  0  0  0  0
    7.7491    0.7931    0.9200 C   0  0  0  0  0  0  0  0  0  0  0  0
    5.0069   -1.4501   -0.0022 C   0  0  0  0  0  0  0  0  0  0  0  0
    5.7884   -2.5733   -0.1283 O   0  0  0  0  0  0  0  0  0  0  0  0
    5.1471   -3.7890   -0.4833 C   0  0  0  0  0  0  0  0  0  0  0  0
    3.6178   -1.4288   -0.1872 C   0  0  0  0  0  0  0  0  0  0  0  0
    0.7010   -1.2935   -0.5091 N   0  0  0  0  0  0  0  0  0  0  0  0
   -0.5949   -0.7909   -0.5870 O   0  0  0  0  0  0  0  0  0  0  0  0
   -4.0405    0.9955    0.2950 C   0  0  0  0  0  0  0  0  0  0  0  0
   -3.8815    1.7120    1.4597 O   0  0  0  0  0  0  0  0  0  0  0  0
   -3.5507    0.8222    2.5296 C   0  0  0  0  0  0  0  0  0  0  0  0
   -5.3301    0.5192    0.0157 C   0  0  0  0  0  0  0  0  0  0  0  0
   -7.7738   -0.8804    0.2991 H   0  0  0  0  0  0  0  0  0  0  0  0
   -8.7601   -0.9434   -1.1671 H   0  0  0  0  0  0  0  0  0  0  0  0
   -8.0713    0.6099   -0.6785 H   0  0  0  0  0  0  0  0  0  0  0  0
   -4.6572   -1.1022   -2.8806 H   0  0  0  0  0  0  0  0  0  0  0  0
   -2.4175   -0.2167   -2.4304 H   0  0  0  0  0  0  0  0  0  0  0  0
   -2.4291    3.2742   -0.1677 H   0  0  0  0  0  0  0  0  0  0  0  0
   -0.6886    3.1720   -0.3064 H   0  0  0  0  0  0  0  0  0  0  0  0
   -1.4609    2.6947    1.2151 H   0  0  0  0  0  0  0  0  0  0  0  0
    3.0352    1.8724    0.4182 H   0  0  0  0  0  0  0  0  0  0  0  0
    5.4434    1.8616    0.7428 H   0  0  0  0  0  0  0  0  0  0  0  0
    8.8025    0.5214    1.0343 H   0  0  0  0  0  0  0  0  0  0  0  0
    7.6904    1.5820    0.1635 H   0  0  0  0  0  0  0  0  0  0  0  0
    7.3912    1.1480    1.8919 H   0  0  0  0  0  0  0  0  0  0  0  0
    4.6768   -3.7141   -1.4688 H   0  0  0  0  0  0  0  0  0  0  0  0
    4.4233   -4.0914    0.2799 H   0  0  0  0  0  0  0  0  0  0  0  0
    5.9143   -4.5675   -0.5393 H   0  0  0  0  0  0  0  0  0  0  0  0
    3.0806   -2.3354   -0.4492 H   0  0  0  0  0  0  0  0  0  0  0  0
   -4.3930    0.1602    2.7620 H   0  0  0  0  0  0  0  0  0  0  0  0
   -2.6537    0.2329    2.3055 H   0  0  0  0  0  0  0  0  0  0  0  0
   -3.3425    1.4304    3.4151 H   0  0  0  0  0  0  0  0  0  0  0  0
   -6.1237    0.7513    0.7164 H   0  0  0  0  0  0  0  0  0  0  0  0
  1  2  1  0
  2  3  1  0
  3  4  2  0
  4  5  1  0
  5  6  2  0
  6  7  1  0
  7  8  1  0
  7  9  1  0
  9 10  2  0
 10 11  1  0
 11 12  1  0
 12 13  2  0
 13 14  1  0
 14 15  2  0
 15 16  1  0
 16 17  1  0
 15 18  1  0
 18 19  1  0
 19 20  1  0
 18 21  2  0
 11 22  2  0
 22 23  1  0
  6 24  1  0
 24 25  1  0
 25 26  1  0
 24 27  2  0
 27  3  1  0
 23  9  1  0
 21 12  1  0
  1 28  1  0
  1 29  1  0
  1 30  1  0
  4 31  1  0
  5 32  1  0
  8 33  1  0
  8 34  1  0
  8 35  1  0
 13 36  1  0
 14 37  1  0
 17 38  1  0
 17 39  1  0
 17 40  1  0
 20 41  1  0
 20 42  1  0
 20 43  1  0
 21 44  1  0
 26 45  1  0
 26 46  1  0
 26 47  1  0
 27 48  1  0
M  END
$$$$
