
     RDKit          3D

 40 43  0  0  0  0  0  0  0  0999 V2000
    6.7390   -2.5276    1.1012 C   0  0  0  0  0  0  0  0  0  0  0  0
    5.8300   -1.3799    1.4652 C   0  0  0  0  0  0  0  0  0  0  0  0
    5.9293   -0.8228    2.5521 O   0  0  0  0  0  0  0  0  0  0  0  0
    4.9182   -1.0986    0.4631 N   0  0  0  0  0  0  0  0  0  0  0  0
    3.9191   -0.1016    0.4623 C   0  0  0  0  0  0  0  0  0  0  0  0
    3.7076    0.7840    1.5171 C   0  0  0  0  0  0  0  0  0  0  0  0
    2.6954    1.7535    1.4553 C   0  0  0  0  0  0  0  0  0  0  0  0
    1.8745    1.8430    0.3165 C   0  0  0  0  0  0  0  0  0  0  0  0
    0.8442    2.7462    0.1236 N   0  0  0  0  0  0  0  0  0  0  0  0
    0.2823    2.5245   -1.0411 C   0  0  0  0  0  0  0  0  0  0  0  0
   -1.0783    3.4815   -1.5842 S   0  0  0  0  0  0  0  0  0  0  0  0
   -2.2108    3.2055   -0.1881 C   0  0  0  0  0  0  0  0  0  0  0  0
   -2.9445    1.8890   -0.3475 C   0  0  0  0  0  0  0  0  0  0  0  0
   -4.2332    1.8609   -0.7217 C   0  0  0  0  0  0  0  0  0  0  0  0
   -4.9290    0.5636   -0.8687 C   0  0  0  0  0  0  0  0  0  0  0  0
   -6.1076    0.5666   -1.2128 O   0  0  0  0  0  0  0  0  0  0  0  0
   -4.1546   -0.5405   -0.5938 N   0  0  0  0  0  0  0  0  0  0  0  0
   -4.5554   -1.8716   -0.6577 C   0  0  0  0  0  0  0  0  0  0  0  0
   -5.9366   -2.2703   -1.0585 C   0  0  0  0  0  0  0  0  0  0  0  0
   -3.5817   -2.7349   -0.3264 C   0  0  0  0  0  0  0  0  0  0  0  0
   -2.1002   -1.9281    0.0870 S   0  0  0  0  0  0  0  0  0  0  0  0
   -2.8437   -0.3669   -0.2033 C   0  0  0  0  0  0  0  0  0  0  0  0
   -2.2216    0.7521   -0.0620 N   0  0  0  0  0  0  0  0  0  0  0  0
    0.9689    1.2817   -1.9933 S   0  0  0  0  0  0  0  0  0  0  0  0
    2.0973    0.9527   -0.7342 C   0  0  0  0  0  0  0  0  0  0  0  0
    3.1095   -0.0230   -0.6822 C   0  0  0  0  0  0  0  0  0  0  0  0
    7.0244   -2.4797    0.0464 H   0  0  0  0  0  0  0  0  0  0  0  0
    7.6516   -2.4731    1.7018 H   0  0  0  0  0  0  0  0  0  0  0  0
    6.2282   -3.4727    1.3026 H   0  0  0  0  0  0  0  0  0  0  0  0
    4.9641   -1.6797   -0.3645 H   0  0  0  0  0  0  0  0  0  0  0  0
    4.3131    0.7548    2.4184 H   0  0  0  0  0  0  0  0  0  0  0  0
    2.5394    2.4365    2.2849 H   0  0  0  0  0  0  0  0  0  0  0  0
   -2.9206    4.0406   -0.1793 H   0  0  0  0  0  0  0  0  0  0  0  0
   -1.6832    3.2406    0.7714 H   0  0  0  0  0  0  0  0  0  0  0  0
   -4.8117    2.7492   -0.9409 H   0  0  0  0  0  0  0  0  0  0  0  0
   -6.0543   -3.3596   -1.0513 H   0  0  0  0  0  0  0  0  0  0  0  0
   -6.6776   -1.8595   -0.3655 H   0  0  0  0  0  0  0  0  0  0  0  0
   -6.1627   -1.9263   -2.0726 H   0  0  0  0  0  0  0  0  0  0  0  0
   -3.6754   -3.8127   -0.3079 H   0  0  0  0  0  0  0  0  0  0  0  0
    3.2468   -0.6972   -1.5215 H   0  0  0  0  0  0  0  0  0  0  0  0
  1  2  1  0
  2  3  2  0
  2  4  1  0
  4  5  1  0
  5  6  2  0
  6  7  1  0
  7  8  2  0
  8  9  1  0
  9 10  2  0
 10 11  1  0
 11 12  1  0
 12 13  1  0
 13 14  2  0
 14 15  1  0
 15 16  2  0
 15 17  1  0
 17 18  1  0
 18 19  1  0
 18 20  2  0
 20 21  1  0
 21 22  1  0
 22 23  2  0
 10 24  1  0
 24 25  1  0
 25 26  2  0
 26  5  1  0
 25  8  1  0
 23 13  1  0
 22 17  1  0
  1 27  1  0
  1 28  1  0
  1 29  1  0
  4 30  1  0
  6 31  1  0
  7 32  1  0
 12 33  1  0
 12 34  1  0
 14 35  1  0
 19 36  1  0
 19 37  1  0
 19 38  1  0
 20 39  1  0
 26 40  1  0
M  END
$$$$
