
     RDKit          3D

 55 59  0  0  0  0  0  0  0  0999 V2000
   -5.4197    3.8711   -2.4307 C   0  0  0  0  0  0  0  0  0  0  0  0
   -6.0971    2.6756   -2.0641 O   0  0  0  0  0  0  0  0  0  0  0  0
   -5.3713    1.7425   -1.3783 C   0  0  0  0  0  0  0  0  0  0  0  0
   -4.0359    1.8525   -1.0015 C   0  0  0  0  0  0  0  0  0  0  0  0
   -3.4109    0.8124   -0.2966 C   0  0  0  0  0  0  0  0  0  0  0  0
   -4.1018   -0.3504    0.0551 C   0  0  0  0  0  0  0  0  0  0  0  0
   -3.5194   -1.4347    0.7329 N   0  0  0  0  0  0  0  0  0  0  0  0
   -2.1891   -1.7310    1.0656 C   0  0  0  0  0  0  0  0  0  0  0  0
   -1.1481   -1.0040    0.5807 N   0  0  0  0  0  0  0  0  0  0  0  0
    0.1338   -1.3004    0.8815 C   0  0  0  0  0  0  0  0  0  0  0  0
    1.1216   -0.4942    0.3494 N   0  0  0  0  0  0  0  0  0  0  0  0
    2.5180   -0.8485    0.5842 C   0  0  0  0  0  0  0  0  0  0  0  0
    3.4475    0.3207    0.2064 C   0  0  0  0  0  0  0  0  0  0  0  0
    3.2277    0.8313   -1.1529 N   0  0  0  0  0  0  0  0  0  0  0  0
    4.1695    1.5426   -1.9031 C   0  0  0  0  0  0  0  0  0  0  0  0
    3.9877    1.7107   -3.1120 O   0  0  0  0  0  0  0  0  0  0  0  0
    5.3599    2.0800   -1.2574 C   0  0  0  0  0  0  0  0  0  0  0  0
    6.5159    2.5885   -1.8275 C   0  0  0  0  0  0  0  0  0  0  0  0
    7.3488    3.0201   -0.7687 C   0  0  0  0  0  0  0  0  0  0  0  0
    6.6515    2.7677    0.3872 C   0  0  0  0  0  0  0  0  0  0  0  0
    5.4483    2.2075    0.1044 O   0  0  0  0  0  0  0  0  0  0  0  0
    1.9820    0.4180   -1.8035 C   0  0  0  0  0  0  0  0  0  0  0  0
    0.7938    0.3118   -0.8304 C   0  0  0  0  0  0  0  0  0  0  0  0
    0.5034   -2.3151    1.6775 N   0  0  0  0  0  0  0  0  0  0  0  0
   -0.5274   -3.0312    2.1449 C   0  0  0  0  0  0  0  0  0  0  0  0
   -1.8656   -2.8120    1.8915 C   0  0  0  0  0  0  0  0  0  0  0  0
   -2.5290   -3.8284    2.6101 C   0  0  0  0  0  0  0  0  0  0  0  0
   -1.6891   -4.6344    3.2692 N   0  0  0  0  0  0  0  0  0  0  0  0
   -0.4725   -4.1234    2.9671 N   0  0  0  0  0  0  0  0  0  0  0  0
    0.7113   -4.7364    3.5144 C   0  0  0  0  0  0  0  0  0  0  0  0
   -5.4441   -0.4491   -0.3401 C   0  0  0  0  0  0  0  0  0  0  0  0
   -6.0712    0.5849   -1.0440 C   0  0  0  0  0  0  0  0  0  0  0  0
   -5.0847    4.4224   -1.5458 H   0  0  0  0  0  0  0  0  0  0  0  0
   -4.5839    3.6603   -3.1060 H   0  0  0  0  0  0  0  0  0  0  0  0
   -6.1302    4.5061   -2.9688 H   0  0  0  0  0  0  0  0  0  0  0  0
   -3.4440    2.7309   -1.2346 H   0  0  0  0  0  0  0  0  0  0  0  0
   -2.3718    0.9467   -0.0125 H   0  0  0  0  0  0  0  0  0  0  0  0
   -4.1887   -2.1001    1.0925 H   0  0  0  0  0  0  0  0  0  0  0  0
    2.7786   -1.7319   -0.0126 H   0  0  0  0  0  0  0  0  0  0  0  0
    2.6974   -1.0878    1.6395 H   0  0  0  0  0  0  0  0  0  0  0  0
    4.4863   -0.0087    0.3095 H   0  0  0  0  0  0  0  0  0  0  0  0
    3.2719    1.1585    0.8914 H   0  0  0  0  0  0  0  0  0  0  0  0
    6.7157    2.6379   -2.8898 H   0  0  0  0  0  0  0  0  0  0  0  0
    8.3296    3.4689   -0.8401 H   0  0  0  0  0  0  0  0  0  0  0  0
    6.8591    2.9257    1.4365 H   0  0  0  0  0  0  0  0  0  0  0  0
    2.1771   -0.5595   -2.2621 H   0  0  0  0  0  0  0  0  0  0  0  0
    1.7267    1.1121   -2.6117 H   0  0  0  0  0  0  0  0  0  0  0  0
    0.5120    1.3160   -0.4913 H   0  0  0  0  0  0  0  0  0  0  0  0
   -0.0515   -0.0978   -1.3967 H   0  0  0  0  0  0  0  0  0  0  0  0
   -3.5916   -4.0174    2.6854 H   0  0  0  0  0  0  0  0  0  0  0  0
    0.7308   -4.5412    4.5894 H   0  0  0  0  0  0  0  0  0  0  0  0
    0.6662   -5.8116    3.3220 H   0  0  0  0  0  0  0  0  0  0  0  0
    1.6022   -4.3170    3.0412 H   0  0  0  0  0  0  0  0  0  0  0  0
   -6.0226   -1.3399   -0.1101 H   0  0  0  0  0  0  0  0  0  0  0  0
   -7.1132    0.4825   -1.3366 H   0  0  0  0  0  0  0  0  0  0  0  0
  1  2  1  0
  2  3  1  0
  3  4  2  0
  4  5  1  0
  5  6  2  0
  6  7  1  0
  7  8  1  0
  8  9  2  0
  9 10  1  0
 10 11  1  0
 11 12  1  0
 12 13  1  0
 13 14  1  0
 14 15  1  0
 15 16  2  0
 15 17  1  0
 17 18  2  0
 18 19  1  0
 19 20  2  0
 20 21  1  0
 14 22  1  0
 22 23  1  0
 10 24  2  0
 24 25  1  0
 25 26  2  0
 26 27  1  0
 27 28  2  0
 28 29  1  0
 29 30  1  0
  6 31  1  0
 31 32  2  0
 32  3  1  0
 26  8  1  0
 23 11  1  0
 29 25  1  0
 21 17  1  0
  1 33  1  0
  1 34  1  0
  1 35  1  0
  4 36  1  0
  5 37  1  0
  7 38  1  0
 12 39  1  0
 12 40  1  0
 13 41  1  0
 13 42  1  0
 18 43  1  0
 19 44  1  0
 20 45  1  0
 22 46  1  0
 22 47  1  0
 23 48  1  0
 23 49  1  0
 27 50  1  0
 30 51  1  0
 30 52  1  0
 30 53  1  0
 31 54  1  0
 32 55  1  0
M  END
$$$$
