
     RDKit          3D

 53 57  0  0  0  0  0  0  0  0999 V2000
    4.7660    2.4121    1.4309 O   0  0  0  0  0  0  0  0  0  0  0  0
    3.9588    1.7303    0.8047 C   0  0  0  0  0  0  0  0  0  0  0  0
    2.4693    1.9324    1.0097 C   0  0  0  0  0  0  0  0  0  0  0  0
    2.0097    1.2919    2.3139 C   0  0  0  0  0  0  0  0  0  0  0  0
    1.9161   -0.1894    2.2105 C   0  0  0  0  0  0  0  0  0  0  0  0
    2.8317   -1.0703    2.5631 N   0  0  0  0  0  0  0  0  0  0  0  0
    2.3344   -2.3302    2.3031 N   0  0  0  0  0  0  0  0  0  0  0  0
    1.1307   -2.1862    1.7949 C   0  0  0  0  0  0  0  0  0  0  0  0
    0.1612   -3.1030    1.3561 C   0  0  0  0  0  0  0  0  0  0  0  0
   -0.9915   -2.6352    0.8643 C   0  0  0  0  0  0  0  0  0  0  0  0
   -1.2173   -1.1439    0.7778 C   0  0  0  0  0  0  0  0  0  0  0  0
   -2.4025   -0.6402    0.2442 N   0  0  0  0  0  0  0  0  0  0  0  0
   -3.3343   -1.4509   -0.5476 C   0  0  0  0  0  0  0  0  0  0  0  0
   -4.1437   -0.5873   -1.5034 C   0  0  0  0  0  0  0  0  0  0  0  0
   -4.9560    0.4523   -0.7339 C   0  0  0  0  0  0  0  0  0  0  0  0
   -4.2396    0.9680    0.5143 C   0  0  0  0  0  0  0  0  0  0  0  0
   -2.7337    0.7883    0.3828 C   0  0  0  0  0  0  0  0  0  0  0  0
   -5.2239    1.5640   -1.6128 O   0  0  0  0  0  0  0  0  0  0  0  0
   -6.6055    1.4458   -1.9492 C   0  0  0  0  0  0  0  0  0  0  0  0
   -7.2049    0.8021   -0.7291 C   0  0  0  0  0  0  0  0  0  0  0  0
   -6.2089   -0.1426   -0.3382 O   0  0  0  0  0  0  0  0  0  0  0  0
   -0.3171   -0.2881    1.2056 N   0  0  0  0  0  0  0  0  0  0  0  0
    0.8186   -0.8495    1.7060 N   0  0  0  0  0  0  0  0  0  0  0  0
    4.2502    0.7525   -0.1152 N   0  0  0  0  0  0  0  0  0  0  0  0
    5.5019    0.2857   -0.5156 C   0  0  0  0  0  0  0  0  0  0  0  0
    6.7049    0.7092    0.0312 C   0  0  0  0  0  0  0  0  0  0  0  0
    7.8931    0.1574   -0.4450 C   0  0  0  0  0  0  0  0  0  0  0  0
    7.8451   -0.7967   -1.4526 C   0  0  0  0  0  0  0  0  0  0  0  0
    6.6032   -1.1594   -1.9414 C   0  0  0  0  0  0  0  0  0  0  0  0
    5.4368   -0.6406   -1.4977 N   0  0  0  0  0  0  0  0  0  0  0  0
    1.9029    1.5567    0.1495 H   0  0  0  0  0  0  0  0  0  0  0  0
    2.2964    3.0154    1.0474 H   0  0  0  0  0  0  0  0  0  0  0  0
    2.6953    1.5500    3.1308 H   0  0  0  0  0  0  0  0  0  0  0  0
    1.0304    1.7027    2.5909 H   0  0  0  0  0  0  0  0  0  0  0  0
    0.3631   -4.1645    1.4395 H   0  0  0  0  0  0  0  0  0  0  0  0
   -1.7728   -3.3091    0.5432 H   0  0  0  0  0  0  0  0  0  0  0  0
   -3.9961   -2.0118    0.1247 H   0  0  0  0  0  0  0  0  0  0  0  0
   -2.7809   -2.1784   -1.1551 H   0  0  0  0  0  0  0  0  0  0  0  0
   -4.8076   -1.2268   -2.0992 H   0  0  0  0  0  0  0  0  0  0  0  0
   -3.4685   -0.0938   -2.2149 H   0  0  0  0  0  0  0  0  0  0  0  0
   -4.5895    0.4310    1.4070 H   0  0  0  0  0  0  0  0  0  0  0  0
   -4.4664    2.0290    0.6772 H   0  0  0  0  0  0  0  0  0  0  0  0
   -2.3439    1.3406   -0.4824 H   0  0  0  0  0  0  0  0  0  0  0  0
   -2.2665    1.2159    1.2796 H   0  0  0  0  0  0  0  0  0  0  0  0
   -6.6863    0.7962   -2.8275 H   0  0  0  0  0  0  0  0  0  0  0  0
   -7.0323    2.4250   -2.1815 H   0  0  0  0  0  0  0  0  0  0  0  0
   -7.3329    1.5212    0.0878 H   0  0  0  0  0  0  0  0  0  0  0  0
   -8.1559    0.3021   -0.9259 H   0  0  0  0  0  0  0  0  0  0  0  0
    3.5021    0.2592   -0.5820 H   0  0  0  0  0  0  0  0  0  0  0  0
    6.7504    1.4439    0.8284 H   0  0  0  0  0  0  0  0  0  0  0  0
    8.8458    0.4658   -0.0196 H   0  0  0  0  0  0  0  0  0  0  0  0
    8.7510   -1.2471   -1.8388 H   0  0  0  0  0  0  0  0  0  0  0  0
    6.5092   -1.9015   -2.7262 H   0  0  0  0  0  0  0  0  0  0  0  0
  1  2  2  0
  2  3  1  0
  3  4  1  0
  4  5  1  0
  5  6  2  0
  6  7  1  0
  7  8  2  0
  8  9  1  0
  9 10  2  0
 10 11  1  0
 11 12  1  0
 12 13  1  0
 13 14  1  0
 14 15  1  0
 15 16  1  0
 16 17  1  0
 15 18  1  0
 18 19  1  0
 19 20  1  0
 20 21  1  0
 11 22  2  0
 22 23  1  0
  2 24  1  0
 24 25  1  0
 25 26  2  0
 26 27  1  0
 27 28  2  0
 28 29  1  0
 29 30  2  0
 23  5  1  0
 30 25  1  0
 23  8  1  0
 17 12  1  0
 21 15  1  0
  3 31  1  0
  3 32  1  0
  4 33  1  0
  4 34  1  0
  9 35  1  0
 10 36  1  0
 13 37  1  0
 13 38  1  0
 14 39  1  0
 14 40  1  0
 16 41  1  0
 16 42  1  0
 17 43  1  0
 17 44  1  0
 19 45  1  0
 19 46  1  0
 20 47  1  0
 20 48  1  0
 24 49  1  0
 26 50  1  0
 27 51  1  0
 28 52  1  0
 29 53  1  0
M  END
$$$$
