
     RDKit          3D

 66 70  0  0  0  0  0  0  0  0999 V2000
   -9.2390    1.0229   -1.9037 C   0  0  0  0  0  0  0  0  0  0  0  0
   -8.1993    0.4630   -0.9739 C   0  0  0  0  0  0  0  0  0  0  0  0
   -8.5757   -0.4678   -0.0002 C   0  0  0  0  0  0  0  0  0  0  0  0
   -7.6350   -1.0178    0.8817 C   0  0  0  0  0  0  0  0  0  0  0  0
   -6.2838   -0.6614    0.8230 C   0  0  0  0  0  0  0  0  0  0  0  0
   -5.2849   -1.2051    1.7119 N   0  0  0  0  0  0  0  0  0  0  0  0
   -3.9998   -0.7795    1.4212 N   0  0  0  0  0  0  0  0  0  0  0  0
   -2.9784   -1.1805    2.1297 C   0  0  0  0  0  0  0  0  0  0  0  0
   -1.7106   -0.7093    1.7973 N   0  0  0  0  0  0  0  0  0  0  0  0
   -1.5180    0.0733    0.5620 C   0  0  0  0  0  0  0  0  0  0  0  0
   -0.0710   -0.0188    0.0502 C   0  0  0  0  0  0  0  0  0  0  0  0
    0.9262    0.3502    1.0599 N   0  0  0  0  0  0  0  0  0  0  0  0
    2.2486    0.6629    0.7883 C   0  0  0  0  0  0  0  0  0  0  0  0
    3.0382    0.9770    1.6770 O   0  0  0  0  0  0  0  0  0  0  0  0
    2.6765    0.6043   -0.6701 C   0  0  0  0  0  0  0  0  0  0  0  0
    4.1735    0.8364   -0.8835 C   0  0  0  0  0  0  0  0  0  0  0  0
    5.0311   -0.3272   -0.3771 C   0  0  0  0  0  0  0  0  0  0  0  0
    6.4047   -0.2049   -0.8296 N   0  0  0  0  0  0  0  0  0  0  0  0
    6.8385   -0.6188   -2.0603 C   0  0  0  0  0  0  0  0  0  0  0  0
    6.2128   -1.1560   -2.9546 O   0  0  0  0  0  0  0  0  0  0  0  0
    8.2571   -0.2757   -2.1382 C   0  0  0  0  0  0  0  0  0  0  0  0
    9.1747   -0.4788   -3.1504 C   0  0  0  0  0  0  0  0  0  0  0  0
   10.4798   -0.0270   -2.9292 C   0  0  0  0  0  0  0  0  0  0  0  0
   10.8304    0.6092   -1.7197 C   0  0  0  0  0  0  0  0  0  0  0  0
    9.8814    0.8049   -0.7111 C   0  0  0  0  0  0  0  0  0  0  0  0
    8.6005    0.3485   -0.9528 C   0  0  0  0  0  0  0  0  0  0  0  0
    7.4020    0.4048   -0.1178 C   0  0  0  0  0  0  0  0  0  0  0  0
    7.3682    0.9173    0.9840 O   0  0  0  0  0  0  0  0  0  0  0  0
    0.4581    0.3698    2.4466 C   0  0  0  0  0  0  0  0  0  0  0  0
   -0.5759   -0.7302    2.7361 C   0  0  0  0  0  0  0  0  0  0  0  0
   -3.1610   -2.1303    3.2526 C   0  0  0  0  0  0  0  0  0  0  0  0
   -4.3940   -2.5346    3.5440 C   0  0  0  0  0  0  0  0  0  0  0  0
   -5.5654   -2.0642    2.7775 C   0  0  0  0  0  0  0  0  0  0  0  0
   -6.6590   -2.4774    3.1578 O   0  0  0  0  0  0  0  0  0  0  0  0
   -5.9182    0.2703   -0.1699 C   0  0  0  0  0  0  0  0  0  0  0  0
   -6.8484    0.8306   -1.0685 C   0  0  0  0  0  0  0  0  0  0  0  0
   -6.3743    1.8261   -2.0911 C   0  0  0  0  0  0  0  0  0  0  0  0
  -10.2483    0.7188   -1.6070 H   0  0  0  0  0  0  0  0  0  0  0  0
   -9.2143    2.1174   -1.8938 H   0  0  0  0  0  0  0  0  0  0  0  0
   -9.0666    0.6634   -2.9229 H   0  0  0  0  0  0  0  0  0  0  0  0
   -9.6136   -0.7822    0.0871 H   0  0  0  0  0  0  0  0  0  0  0  0
   -8.0100   -1.7376    1.6005 H   0  0  0  0  0  0  0  0  0  0  0  0
   -2.1752   -0.2918   -0.2353 H   0  0  0  0  0  0  0  0  0  0  0  0
   -1.7803    1.1197    0.7599 H   0  0  0  0  0  0  0  0  0  0  0  0
    0.0467    0.6165   -0.8322 H   0  0  0  0  0  0  0  0  0  0  0  0
    0.1519   -1.0503   -0.2477 H   0  0  0  0  0  0  0  0  0  0  0  0
    2.1340    1.3935   -1.2039 H   0  0  0  0  0  0  0  0  0  0  0  0
    2.3896   -0.3636   -1.0965 H   0  0  0  0  0  0  0  0  0  0  0  0
    4.4930    1.7684   -0.4016 H   0  0  0  0  0  0  0  0  0  0  0  0
    4.3442    0.9720   -1.9590 H   0  0  0  0  0  0  0  0  0  0  0  0
    5.0267   -0.3673    0.7167 H   0  0  0  0  0  0  0  0  0  0  0  0
    4.6358   -1.2755   -0.7583 H   0  0  0  0  0  0  0  0  0  0  0  0
    8.8909   -0.9671   -4.0774 H   0  0  0  0  0  0  0  0  0  0  0  0
   11.2367   -0.1659   -3.6996 H   0  0  0  0  0  0  0  0  0  0  0  0
   11.8526    0.9533   -1.5720 H   0  0  0  0  0  0  0  0  0  0  0  0
   10.1351    1.2949    0.2234 H   0  0  0  0  0  0  0  0  0  0  0  0
    0.0101    1.3575    2.6127 H   0  0  0  0  0  0  0  0  0  0  0  0
    1.2988    0.2726    3.1413 H   0  0  0  0  0  0  0  0  0  0  0  0
   -0.0926   -1.7118    2.6720 H   0  0  0  0  0  0  0  0  0  0  0  0
   -0.9288   -0.5925    3.7644 H   0  0  0  0  0  0  0  0  0  0  0  0
   -2.3043   -2.4944    3.7993 H   0  0  0  0  0  0  0  0  0  0  0  0
   -4.5971   -3.2304    4.3479 H   0  0  0  0  0  0  0  0  0  0  0  0
   -4.8794    0.5812   -0.2534 H   0  0  0  0  0  0  0  0  0  0  0  0
   -6.6799    1.5201   -3.0964 H   0  0  0  0  0  0  0  0  0  0  0  0
   -6.7840    2.8165   -1.8703 H   0  0  0  0  0  0  0  0  0  0  0  0
   -5.2821    1.9089   -2.0969 H   0  0  0  0  0  0  0  0  0  0  0  0
  1  2  1  0
  2  3  2  0
  3  4  1  0
  4  5  2  0
  5  6  1  0
  6  7  1  0
  7  8  2  0
  8  9  1  0
  9 10  1  0
 10 11  1  0
 11 12  1  0
 12 13  1  0
 13 14  2  0
 13 15  1  0
 15 16  1  0
 16 17  1  0
 17 18  1  0
 18 19  1  0
 19 20  2  0
 19 21  1  0
 21 22  2  0
 22 23  1  0
 23 24  2  0
 24 25  1  0
 25 26  2  0
 26 27  1  0
 27 28  2  0
 12 29  1  0
 29 30  1  0
  8 31  1  0
 31 32  2  0
 32 33  1  0
 33 34  2  0
  5 35  1  0
 35 36  2  0
 36 37  1  0
 36  2  1  0
 33  6  1  0
 30  9  1  0
 27 18  1  0
 26 21  1  0
  1 38  1  0
  1 39  1  0
  1 40  1  0
  3 41  1  0
  4 42  1  0
 10 43  1  0
 10 44  1  0
 11 45  1  0
 11 46  1  0
 15 47  1  0
 15 48  1  0
 16 49  1  0
 16 50  1  0
 17 51  1  0
 17 52  1  0
 22 53  1  0
 23 54  1  0
 24 55  1  0
 25 56  1  0
 29 57  1  0
 29 58  1  0
 30 59  1  0
 30 60  1  0
 31 61  1  0
 32 62  1  0
 35 63  1  0
 37 64  1  0
 37 65  1  0
 37 66  1  0
M  END
$$$$
