
     RDKit          3D

 45 48  0  0  0  0  0  0  0  0999 V2000
   -6.5441    1.7509   -1.4077 C   0  0  0  0  0  0  0  0  0  0  0  0
   -5.5285    0.8995   -0.8178 N   0  0  0  0  0  0  0  0  0  0  0  0
   -4.2451    0.9488   -1.3596 C   0  0  0  0  0  0  0  0  0  0  0  0
   -3.9087    1.6706   -2.2938 O   0  0  0  0  0  0  0  0  0  0  0  0
   -3.2975    0.0711   -0.7186 C   0  0  0  0  0  0  0  0  0  0  0  0
   -1.9216   -0.1465   -1.0365 C   0  0  0  0  0  0  0  0  0  0  0  0
   -1.3223   -1.0577   -0.1843 C   0  0  0  0  0  0  0  0  0  0  0  0
    0.0405   -1.5692   -0.1585 C   0  0  0  0  0  0  0  0  0  0  0  0
    0.2906   -2.7593    0.0370 O   0  0  0  0  0  0  0  0  0  0  0  0
    1.0763   -0.6662   -0.3610 N   0  0  0  0  0  0  0  0  0  0  0  0
    1.0096    0.7886   -0.3253 C   0  0  0  0  0  0  0  0  0  0  0  0
    2.4339    1.2340   -0.0150 C   0  0  0  0  0  0  0  0  0  0  0  0
    3.2817    0.1319   -0.6630 C   0  0  0  0  0  0  0  0  0  0  0  0
    4.7158    0.0876   -0.1976 C   0  0  0  0  0  0  0  0  0  0  0  0
    5.0546   -0.1215    1.1479 C   0  0  0  0  0  0  0  0  0  0  0  0
    6.3914   -0.1579    1.5507 C   0  0  0  0  0  0  0  0  0  0  0  0
    7.4081    0.0150    0.6152 C   0  0  0  0  0  0  0  0  0  0  0  0
    7.0889    0.2245   -0.7236 C   0  0  0  0  0  0  0  0  0  0  0  0
    5.7525    0.2608   -1.1274 C   0  0  0  0  0  0  0  0  0  0  0  0
    2.4589   -1.1259   -0.3622 C   0  0  0  0  0  0  0  0  0  0  0  0
   -2.4557   -1.6671    0.9558 S   0  0  0  0  0  0  0  0  0  0  0  0
   -3.6952   -0.6950    0.3385 C   0  0  0  0  0  0  0  0  0  0  0  0
   -4.9714   -0.7054    0.8750 N   0  0  0  0  0  0  0  0  0  0  0  0
   -5.3679   -1.5310    2.0103 C   0  0  0  0  0  0  0  0  0  0  0  0
   -5.9288    0.1285    0.2849 C   0  0  0  0  0  0  0  0  0  0  0  0
   -7.0851    0.1934    0.7130 O   0  0  0  0  0  0  0  0  0  0  0  0
   -6.8338    2.5107   -0.6743 H   0  0  0  0  0  0  0  0  0  0  0  0
   -6.1989    2.2487   -2.3173 H   0  0  0  0  0  0  0  0  0  0  0  0
   -7.4263    1.1489   -1.6496 H   0  0  0  0  0  0  0  0  0  0  0  0
   -1.4134    0.3359   -1.8632 H   0  0  0  0  0  0  0  0  0  0  0  0
    0.7098    1.1375   -1.3186 H   0  0  0  0  0  0  0  0  0  0  0  0
    0.2927    1.1405    0.4217 H   0  0  0  0  0  0  0  0  0  0  0  0
    2.6552    2.2300   -0.4109 H   0  0  0  0  0  0  0  0  0  0  0  0
    2.5786    1.2670    1.0716 H   0  0  0  0  0  0  0  0  0  0  0  0
    3.2576    0.2950   -1.7505 H   0  0  0  0  0  0  0  0  0  0  0  0
    4.2820   -0.2601    1.9010 H   0  0  0  0  0  0  0  0  0  0  0  0
    6.6385   -0.3226    2.5964 H   0  0  0  0  0  0  0  0  0  0  0  0
    8.4480   -0.0143    0.9292 H   0  0  0  0  0  0  0  0  0  0  0  0
    7.8808    0.3591   -1.4559 H   0  0  0  0  0  0  0  0  0  0  0  0
    5.5294    0.4254   -2.1796 H   0  0  0  0  0  0  0  0  0  0  0  0
    2.5975   -1.9088   -1.1154 H   0  0  0  0  0  0  0  0  0  0  0  0
    2.6711   -1.5556    0.6234 H   0  0  0  0  0  0  0  0  0  0  0  0
   -4.7598   -1.2634    2.8801 H   0  0  0  0  0  0  0  0  0  0  0  0
   -6.4191   -1.3908    2.2759 H   0  0  0  0  0  0  0  0  0  0  0  0
   -5.2204   -2.5857    1.7579 H   0  0  0  0  0  0  0  0  0  0  0  0
  1  2  1  0
  2  3  1  0
  3  4  2  0
  3  5  1  0
  5  6  1  0
  6  7  2  0
  7  8  1  0
  8  9  2  0
  8 10  1  0
 10 11  1  0
 11 12  1  0
 12 13  1  0
 13 14  1  0
 14 15  2  0
 15 16  1  0
 16 17  2  0
 17 18  1  0
 18 19  2  0
 13 20  1  0
  7 21  1  0
 21 22  1  0
 22 23  1  0
 23 24  1  0
 23 25  1  0
 25 26  2  0
 25  2  1  0
 22  5  2  0
 20 10  1  0
 19 14  1  0
  1 27  1  0
  1 28  1  0
  1 29  1  0
  6 30  1  0
 11 31  1  0
 11 32  1  0
 12 33  1  0
 12 34  1  0
 13 35  1  0
 15 36  1  0
 16 37  1  0
 17 38  1  0
 18 39  1  0
 19 40  1  0
 20 41  1  0
 20 42  1  0
 24 43  1  0
 24 44  1  0
 24 45  1  0
M  END
$$$$
