
     RDKit          3D

 63 66  0  0  0  0  0  0  0  0999 V2000
    5.1526    3.3736    0.9200 C   0  0  0  0  0  0  0  0  0  0  0  0
    3.6740    3.2597    0.5800 C   0  0  0  0  0  0  0  0  0  0  0  0
    3.2964    1.8878    0.0040 C   0  0  0  0  0  0  0  0  0  0  0  0
    3.6214    0.7664    0.8852 N   0  0  0  0  0  0  0  0  0  0  0  0
    3.6455   -0.5042    0.1271 C   0  0  0  0  0  0  0  0  0  0  0  0
    3.4807   -1.7427    1.0200 C   0  0  0  0  0  0  0  0  0  0  0  0
    2.1632   -1.7288    1.7095 N   0  0  0  0  0  0  0  0  0  0  0  0
    1.0479   -2.9476    1.3555 S   0  0  0  0  0  6  0  0  0  0  0  0
   -0.0507   -2.8046    2.2906 O   0  0  0  0  0  0  0  0  0  0  0  0
    1.7436   -4.2109    1.2487 O   0  0  0  0  0  0  0  0  0  0  0  0
    0.4031   -2.5125   -0.2486 C   0  0  0  0  0  0  0  0  0  0  0  0
   -0.8210   -1.8245   -0.3018 C   0  0  0  0  0  0  0  0  0  0  0  0
   -1.3923   -1.4837   -1.5342 C   0  0  0  0  0  0  0  0  0  0  0  0
   -2.6681   -0.7171   -1.5431 C   0  0  0  0  0  0  0  0  0  0  0  0
   -3.6523   -1.0765   -2.5770 C   0  0  0  0  0  0  0  0  0  0  0  0
   -4.7733   -0.3595   -2.5942 C   0  0  0  0  0  0  0  0  0  0  0  0
   -5.0162    0.7383   -1.6286 C   0  0  0  0  0  0  0  0  0  0  0  0
   -6.0458    1.3858   -1.8003 O   0  0  0  0  0  0  0  0  0  0  0  0
   -4.0361    0.9159   -0.6475 N   0  0  0  0  0  0  0  0  0  0  0  0
   -4.1477    1.8646    0.3923 C   0  0  0  0  0  0  0  0  0  0  0  0
   -3.1086    2.2928    1.2924 C   0  0  0  0  0  0  0  0  0  0  0  0
   -1.6847    1.8836    1.3665 C   0  0  0  0  0  0  0  0  0  0  0  0
   -3.5542    3.1974    2.1731 N   0  0  0  0  0  0  0  0  0  0  0  0
   -4.8804    3.3812    1.8786 O   0  0  0  0  0  0  0  0  0  0  0  0
   -5.2462    2.5871    0.8352 C   0  0  0  0  0  0  0  0  0  0  0  0
   -6.6856    2.6827    0.5109 C   0  0  0  0  0  0  0  0  0  0  0  0
   -2.8531    0.1968   -0.6451 N   0  0  0  0  0  0  0  0  0  0  0  0
   -0.7351   -1.8268   -2.7197 C   0  0  0  0  0  0  0  0  0  0  0  0
    0.4719   -2.5274   -2.6670 C   0  0  0  0  0  0  0  0  0  0  0  0
    1.0299   -2.8940   -1.4360 C   0  0  0  0  0  0  0  0  0  0  0  0
    2.2429   -3.5195   -1.4511 O   0  0  0  0  0  0  0  0  0  0  0  0
    2.1058   -4.9051   -1.7789 C   0  0  0  0  0  0  0  0  0  0  0  0
    1.6257   -0.3679    1.9778 C   0  0  0  0  0  0  0  0  0  0  0  0
    2.7567    0.6734    2.0787 C   0  0  0  0  0  0  0  0  0  0  0  0
    5.3915    4.3950    1.2291 H   0  0  0  0  0  0  0  0  0  0  0  0
    5.4252    2.7045    1.7420 H   0  0  0  0  0  0  0  0  0  0  0  0
    5.7744    3.1273    0.0521 H   0  0  0  0  0  0  0  0  0  0  0  0
    3.4253    4.0243   -0.1668 H   0  0  0  0  0  0  0  0  0  0  0  0
    3.0771    3.4930    1.4696 H   0  0  0  0  0  0  0  0  0  0  0  0
    3.8469    1.7752   -0.9378 H   0  0  0  0  0  0  0  0  0  0  0  0
    2.2325    1.8773   -0.2559 H   0  0  0  0  0  0  0  0  0  0  0  0
    2.8493   -0.5130   -0.6276 H   0  0  0  0  0  0  0  0  0  0  0  0
    4.5989   -0.5729   -0.4065 H   0  0  0  0  0  0  0  0  0  0  0  0
    4.2658   -1.7621    1.7859 H   0  0  0  0  0  0  0  0  0  0  0  0
    3.6198   -2.6487    0.4279 H   0  0  0  0  0  0  0  0  0  0  0  0
   -1.3351   -1.5528    0.6197 H   0  0  0  0  0  0  0  0  0  0  0  0
   -3.4812   -1.8898   -3.2691 H   0  0  0  0  0  0  0  0  0  0  0  0
   -5.5627   -0.5431   -3.3125 H   0  0  0  0  0  0  0  0  0  0  0  0
   -1.5993    0.8284    1.6434 H   0  0  0  0  0  0  0  0  0  0  0  0
   -1.1810    2.0460    0.4077 H   0  0  0  0  0  0  0  0  0  0  0  0
   -1.1414    2.4627    2.1207 H   0  0  0  0  0  0  0  0  0  0  0  0
   -7.2356    3.1822    1.3155 H   0  0  0  0  0  0  0  0  0  0  0  0
   -6.8374    3.2729   -0.3961 H   0  0  0  0  0  0  0  0  0  0  0  0
   -7.1330    1.6910    0.3905 H   0  0  0  0  0  0  0  0  0  0  0  0
   -1.1270   -1.5309   -3.6901 H   0  0  0  0  0  0  0  0  0  0  0  0
    0.9919   -2.7724   -3.5920 H   0  0  0  0  0  0  0  0  0  0  0  0
    1.3104   -5.3864   -1.2003 H   0  0  0  0  0  0  0  0  0  0  0  0
    1.9207   -5.0307   -2.8508 H   0  0  0  0  0  0  0  0  0  0  0  0
    3.0507   -5.3994   -1.5388 H   0  0  0  0  0  0  0  0  0  0  0  0
    1.0767   -0.3844    2.9238 H   0  0  0  0  0  0  0  0  0  0  0  0
    0.9375   -0.0665    1.1833 H   0  0  0  0  0  0  0  0  0  0  0  0
    3.4025    0.3966    2.9208 H   0  0  0  0  0  0  0  0  0  0  0  0
    2.3265    1.6431    2.3488 H   0  0  0  0  0  0  0  0  0  0  0  0
  1  2  1  0
  2  3  1  0
  3  4  1  0
  4  5  1  0
  5  6  1  0
  6  7  1  0
  7  8  1  0
  8  9  2  0
  8 10  2  0
  8 11  1  0
 11 12  2  0
 12 13  1  0
 13 14  1  0
 14 15  1  0
 15 16  2  0
 16 17  1  0
 17 18  2  0
 17 19  1  0
 19 20  1  0
 20 21  1  0
 21 22  1  0
 21 23  2  0
 23 24  1  0
 24 25  1  0
 25 26  1  0
 19 27  1  0
 13 28  2  0
 28 29  1  0
 29 30  2  0
 30 31  1  0
 31 32  1  0
  7 33  1  0
 33 34  1  0
 34  4  1  0
 30 11  1  0
 27 14  2  0
 25 20  2  0
  1 35  1  0
  1 36  1  0
  1 37  1  0
  2 38  1  0
  2 39  1  0
  3 40  1  0
  3 41  1  0
  5 42  1  0
  5 43  1  0
  6 44  1  0
  6 45  1  0
 12 46  1  0
 15 47  1  0
 16 48  1  0
 22 49  1  0
 22 50  1  0
 22 51  1  0
 26 52  1  0
 26 53  1  0
 26 54  1  0
 28 55  1  0
 29 56  1  0
 32 57  1  0
 32 58  1  0
 32 59  1  0
 33 60  1  0
 33 61  1  0
 34 62  1  0
 34 63  1  0
M  END
$$$$
