
     RDKit          3D

 49 51  0  0  0  0  0  0  0  0999 V2000
    5.2063    1.5581    3.3699 C   0  0  0  0  0  0  0  0  0  0  0  0
    4.1183    1.2948    2.4914 O   0  0  0  0  0  0  0  0  0  0  0  0
    4.2325    0.1996    1.6787 C   0  0  0  0  0  0  0  0  0  0  0  0
    5.2952   -0.7044    1.6627 C   0  0  0  0  0  0  0  0  0  0  0  0
    5.2825   -1.7868    0.7785 C   0  0  0  0  0  0  0  0  0  0  0  0
    4.2100   -1.9695   -0.0936 C   0  0  0  0  0  0  0  0  0  0  0  0
    3.1380   -1.0683   -0.0943 C   0  0  0  0  0  0  0  0  0  0  0  0
    1.9712   -1.2764   -1.0266 C   0  0  0  0  0  0  0  0  0  0  0  0
    1.1663   -2.4126   -0.6006 N   0  0  0  0  0  0  0  0  0  0  0  0
   -0.0165   -3.0068   -1.6205 S   0  0  0  0  0  6  0  0  0  0  0  0
   -0.7303   -4.0264   -0.8878 O   0  0  0  0  0  0  0  0  0  0  0  0
    0.6055   -3.2735   -2.8995 O   0  0  0  0  0  0  0  0  0  0  0  0
   -1.0973   -1.6108   -1.8133 C   0  0  0  0  0  0  0  0  0  0  0  0
   -1.2131   -0.9856   -3.0509 C   0  0  0  0  0  0  0  0  0  0  0  0
   -2.0476    0.1228   -3.1712 C   0  0  0  0  0  0  0  0  0  0  0  0
   -2.7589    0.6190   -2.0619 C   0  0  0  0  0  0  0  0  0  0  0  0
   -2.6566   -0.0206   -0.8038 C   0  0  0  0  0  0  0  0  0  0  0  0
   -1.8165   -1.1462   -0.7051 C   0  0  0  0  0  0  0  0  0  0  0  0
   -3.3511    0.4296    0.3811 N   0  0  0  0  0  0  0  0  0  0  0  0
   -3.9713   -0.5251    1.2135 C   0  0  0  0  0  0  0  0  0  0  0  0
   -4.7247    0.0012    2.4149 C   0  0  0  0  0  0  0  0  0  0  0  0
   -3.9496   -1.7417    1.0212 O   0  0  0  0  0  0  0  0  0  0  0  0
   -3.5209    1.8676    0.6462 C   0  0  0  0  0  0  0  0  0  0  0  0
   -2.5556    2.8294   -0.0463 C   0  0  0  0  0  0  0  0  0  0  0  0
   -3.0018    3.2691   -1.4360 C   0  0  0  0  0  0  0  0  0  0  0  0
   -3.8518    1.9924   -2.4014 S   0  0  0  0  0  0  0  0  0  0  0  0
    3.1583    0.0098    0.8032 C   0  0  0  0  0  0  0  0  0  0  0  0
    4.9794    2.4771    3.9198 H   0  0  0  0  0  0  0  0  0  0  0  0
    5.3242    0.7511    4.1006 H   0  0  0  0  0  0  0  0  0  0  0  0
    6.1338    1.7261    2.8116 H   0  0  0  0  0  0  0  0  0  0  0  0
    6.1467   -0.6003    2.3267 H   0  0  0  0  0  0  0  0  0  0  0  0
    6.1098   -2.4928    0.7727 H   0  0  0  0  0  0  0  0  0  0  0  0
    4.2082   -2.8224   -0.7711 H   0  0  0  0  0  0  0  0  0  0  0  0
    2.3550   -1.4256   -2.0425 H   0  0  0  0  0  0  0  0  0  0  0  0
    1.3539   -0.3709   -1.0386 H   0  0  0  0  0  0  0  0  0  0  0  0
    0.9823   -2.5384    0.3929 H   0  0  0  0  0  0  0  0  0  0  0  0
   -0.6736   -1.3535   -3.9206 H   0  0  0  0  0  0  0  0  0  0  0  0
   -2.1515    0.5942   -4.1480 H   0  0  0  0  0  0  0  0  0  0  0  0
   -1.6998   -1.6652    0.2456 H   0  0  0  0  0  0  0  0  0  0  0  0
   -5.2416   -0.8295    2.9063 H   0  0  0  0  0  0  0  0  0  0  0  0
   -5.4825    0.7278    2.1127 H   0  0  0  0  0  0  0  0  0  0  0  0
   -4.0297    0.4394    3.1347 H   0  0  0  0  0  0  0  0  0  0  0  0
   -3.3560    2.0064    1.7213 H   0  0  0  0  0  0  0  0  0  0  0  0
   -4.5682    2.1373    0.4628 H   0  0  0  0  0  0  0  0  0  0  0  0
   -2.4612    3.7367    0.5654 H   0  0  0  0  0  0  0  0  0  0  0  0
   -1.5462    2.4006   -0.0861 H   0  0  0  0  0  0  0  0  0  0  0  0
   -2.1390    3.6350   -2.0040 H   0  0  0  0  0  0  0  0  0  0  0  0
   -3.6984    4.1094   -1.3434 H   0  0  0  0  0  0  0  0  0  0  0  0
    2.3337    0.7187    0.8277 H   0  0  0  0  0  0  0  0  0  0  0  0
  1  2  1  0
  2  3  1  0
  3  4  2  0
  4  5  1  0
  5  6  2  0
  6  7  1  0
  7  8  1  0
  8  9  1  0
  9 10  1  0
 10 11  2  0
 10 12  2  0
 10 13  1  0
 13 14  2  0
 14 15  1  0
 15 16  2  0
 16 17  1  0
 17 18  2  0
 17 19  1  0
 19 20  1  0
 20 21  1  0
 20 22  2  0
 19 23  1  0
 23 24  1  0
 24 25  1  0
 25 26  1  0
  7 27  2  0
 27  3  1  0
 18 13  1  0
 26 16  1  0
  1 28  1  0
  1 29  1  0
  1 30  1  0
  4 31  1  0
  5 32  1  0
  6 33  1  0
  8 34  1  0
  8 35  1  0
  9 36  1  0
 14 37  1  0
 15 38  1  0
 18 39  1  0
 21 40  1  0
 21 41  1  0
 21 42  1  0
 23 43  1  0
 23 44  1  0
 24 45  1  0
 24 46  1  0
 25 47  1  0
 25 48  1  0
 27 49  1  0
M  END
$$$$
