
     RDKit          3D

 64 68  0  0  0  0  0  0  0  0999 V2000
    8.5747   -0.6220    3.2698 C   0  0  0  0  0  0  0  0  0  0  0  0
    8.6051   -0.6034    1.8506 O   0  0  0  0  0  0  0  0  0  0  0  0
    7.4876   -0.1547    1.1914 C   0  0  0  0  0  0  0  0  0  0  0  0
    6.3134    0.2735    1.8226 C   0  0  0  0  0  0  0  0  0  0  0  0
    5.2046    0.7070    1.0772 C   0  0  0  0  0  0  0  0  0  0  0  0
    5.2874    0.7330   -0.3178 C   0  0  0  0  0  0  0  0  0  0  0  0
    6.4655    0.3051   -0.9549 C   0  0  0  0  0  0  0  0  0  0  0  0
    7.5627   -0.1430   -0.2128 C   0  0  0  0  0  0  0  0  0  0  0  0
    8.7453   -0.5758   -0.7592 O   0  0  0  0  0  0  0  0  0  0  0  0
    8.8301   -0.6492   -2.1749 C   0  0  0  0  0  0  0  0  0  0  0  0
    4.1351    1.2456   -1.1334 C   0  0  0  0  0  0  0  0  0  0  0  0
    2.8758    0.4208   -0.9755 C   0  0  0  0  0  0  0  0  0  0  0  0
    2.4175   -0.1988   -1.9413 O   0  0  0  0  0  0  0  0  0  0  0  0
    2.2183    0.4764    0.2555 N   0  0  0  0  0  0  0  0  0  0  0  0
    0.8138    0.0471    0.2473 C   0  0  0  0  0  0  0  0  0  0  0  0
   -0.1365    1.1867   -0.1590 C   0  0  0  0  0  0  0  0  0  0  0  0
    0.2746    2.3294   -0.3769 O   0  0  0  0  0  0  0  0  0  0  0  0
   -1.4905    0.8825   -0.2335 N   0  0  0  0  0  0  0  0  0  0  0  0
   -2.4347    1.9589   -0.5587 C   0  0  0  0  0  0  0  0  0  0  0  0
   -3.8641    1.6488   -0.0899 C   0  0  0  0  0  0  0  0  0  0  0  0
   -4.3636    0.3881   -0.6849 N   0  0  0  0  0  0  0  0  0  0  0  0
   -5.6034    0.0094   -0.2643 C   0  0  0  0  0  0  0  0  0  0  0  0
   -6.2162    0.3984    0.8316 N   0  0  0  0  0  0  0  0  0  0  0  0
   -7.4186   -0.2590    0.8457 C   0  0  0  0  0  0  0  0  0  0  0  0
   -8.4402   -0.2268    1.8065 C   0  0  0  0  0  0  0  0  0  0  0  0
   -9.5886   -0.9988    1.5963 C   0  0  0  0  0  0  0  0  0  0  0  0
   -9.7185   -1.7851    0.4506 C   0  0  0  0  0  0  0  0  0  0  0  0
   -8.7121   -1.8255   -0.5217 C   0  0  0  0  0  0  0  0  0  0  0  0
   -7.5711   -1.0473   -0.2900 C   0  0  0  0  0  0  0  0  0  0  0  0
   -6.4164   -0.8241   -1.0052 N   0  0  0  0  0  0  0  0  0  0  0  0
   -6.1541   -1.3154   -2.3355 C   0  0  0  0  0  0  0  0  0  0  0  0
   -3.3493   -0.6767   -0.8499 C   0  0  0  0  0  0  0  0  0  0  0  0
   -2.0861   -0.4390   -0.0002 C   0  0  0  0  0  0  0  0  0  0  0  0
    2.7231    1.0062    1.4323 C   0  0  0  0  0  0  0  0  0  0  0  0
    4.0046    1.1480    1.8009 C   0  0  0  0  0  0  0  0  0  0  0  0
    7.8068   -1.3102    3.6387 H   0  0  0  0  0  0  0  0  0  0  0  0
    9.5448   -0.9876    3.6209 H   0  0  0  0  0  0  0  0  0  0  0  0
    8.4334    0.3853    3.6762 H   0  0  0  0  0  0  0  0  0  0  0  0
    6.2352    0.2645    2.9048 H   0  0  0  0  0  0  0  0  0  0  0  0
    6.5028    0.3358   -2.0395 H   0  0  0  0  0  0  0  0  0  0  0  0
    8.7463    0.3444   -2.6267 H   0  0  0  0  0  0  0  0  0  0  0  0
    9.8170   -1.0469   -2.4302 H   0  0  0  0  0  0  0  0  0  0  0  0
    8.0801   -1.3351   -2.5824 H   0  0  0  0  0  0  0  0  0  0  0  0
    4.3936    1.2487   -2.2000 H   0  0  0  0  0  0  0  0  0  0  0  0
    3.9227    2.2921   -0.8809 H   0  0  0  0  0  0  0  0  0  0  0  0
    0.6996   -0.7801   -0.4598 H   0  0  0  0  0  0  0  0  0  0  0  0
    0.5377   -0.3135    1.2452 H   0  0  0  0  0  0  0  0  0  0  0  0
   -2.4118    2.0805   -1.6487 H   0  0  0  0  0  0  0  0  0  0  0  0
   -2.0929    2.8984   -0.1110 H   0  0  0  0  0  0  0  0  0  0  0  0
   -4.5225    2.4764   -0.3798 H   0  0  0  0  0  0  0  0  0  0  0  0
   -3.8700    1.5788    1.0062 H   0  0  0  0  0  0  0  0  0  0  0  0
   -8.3316    0.3880    2.6925 H   0  0  0  0  0  0  0  0  0  0  0  0
  -10.3868   -0.9814    2.3345 H   0  0  0  0  0  0  0  0  0  0  0  0
  -10.6209   -2.3760    0.3079 H   0  0  0  0  0  0  0  0  0  0  0  0
   -8.8221   -2.4353   -1.4112 H   0  0  0  0  0  0  0  0  0  0  0  0
   -5.6339   -2.2725   -2.2507 H   0  0  0  0  0  0  0  0  0  0  0  0
   -5.5448   -0.5923   -2.8830 H   0  0  0  0  0  0  0  0  0  0  0  0
   -7.0983   -1.4464   -2.8700 H   0  0  0  0  0  0  0  0  0  0  0  0
   -3.0658   -0.7024   -1.9093 H   0  0  0  0  0  0  0  0  0  0  0  0
   -3.7532   -1.6653   -0.5980 H   0  0  0  0  0  0  0  0  0  0  0  0
   -2.3376   -0.4861    1.0662 H   0  0  0  0  0  0  0  0  0  0  0  0
   -1.3624   -1.2314   -0.2010 H   0  0  0  0  0  0  0  0  0  0  0  0
    1.9640    1.2829    2.1644 H   0  0  0  0  0  0  0  0  0  0  0  0
    4.1952    1.5664    2.7885 H   0  0  0  0  0  0  0  0  0  0  0  0
  1  2  1  0
  2  3  1  0
  3  4  2  0
  4  5  1  0
  5  6  2  0
  6  7  1  0
  7  8  2  0
  8  9  1  0
  9 10  1  0
  6 11  1  0
 11 12  1  0
 12 13  2  0
 12 14  1  0
 14 15  1  0
 15 16  1  0
 16 17  2  0
 16 18  1  0
 18 19  1  0
 19 20  1  0
 20 21  1  0
 21 22  1  0
 22 23  2  0
 23 24  1  0
 24 25  2  0
 25 26  1  0
 26 27  2  0
 27 28  1  0
 28 29  2  0
 29 30  1  0
 30 31  1  0
 21 32  1  0
 32 33  1  0
 14 34  1  0
 34 35  2  0
  8  3  1  0
 33 18  1  0
 35  5  1  0
 30 22  1  0
 29 24  1  0
  1 36  1  0
  1 37  1  0
  1 38  1  0
  4 39  1  0
  7 40  1  0
 10 41  1  0
 10 42  1  0
 10 43  1  0
 11 44  1  0
 11 45  1  0
 15 46  1  0
 15 47  1  0
 19 48  1  0
 19 49  1  0
 20 50  1  0
 20 51  1  0
 25 52  1  0
 26 53  1  0
 27 54  1  0
 28 55  1  0
 31 56  1  0
 31 57  1  0
 31 58  1  0
 32 59  1  0
 32 60  1  0
 33 61  1  0
 33 62  1  0
 34 63  1  0
 35 64  1  0
M  END
$$$$
