
     RDKit          3D

 47 49  0  0  0  0  0  0  0  0999 V2000
   -3.1985   -2.2257   -2.2674 C   0  0  0  0  0  0  0  0  0  0  0  0
   -4.2778   -1.6217   -1.4077 C   0  0  0  0  0  0  0  0  0  0  0  0
   -5.6152   -1.7666   -1.8242 C   0  0  0  0  0  0  0  0  0  0  0  0
   -6.6547   -1.2278   -1.0711 C   0  0  0  0  0  0  0  0  0  0  0  0
   -8.2816   -1.4152   -1.5972 Cl  0  0  0  0  0  0  0  0  0  0  0  0
   -6.3802   -0.5380    0.1015 C   0  0  0  0  0  0  0  0  0  0  0  0
   -5.0561   -0.3854    0.5263 C   0  0  0  0  0  0  0  0  0  0  0  0
   -3.9932   -0.9210   -0.2121 C   0  0  0  0  0  0  0  0  0  0  0  0
   -2.6427   -0.7807    0.1876 N   0  0  0  0  0  0  0  0  0  0  0  0
   -2.1460   -0.1568    1.3242 C   0  0  0  0  0  0  0  0  0  0  0  0
   -2.8074    0.3897    2.1997 O   0  0  0  0  0  0  0  0  0  0  0  0
   -0.6182   -0.1556    1.3571 C   0  0  0  0  0  0  0  0  0  0  0  0
   -0.0513    0.0052    2.7797 C   0  0  0  0  0  0  0  0  0  0  0  0
    0.7740    1.2801    2.9351 C   0  0  0  0  0  0  0  0  0  0  0  0
    1.8614    1.3590    1.8661 C   0  0  0  0  0  0  0  0  0  0  0  0
    1.3255    1.1395    0.4938 N   0  0  0  0  0  0  0  0  0  0  0  0
    2.2351    0.0914   -0.4965 S   0  0  0  0  0  6  0  0  0  0  0  0
    2.3432   -1.1846    0.1821 O   0  0  0  0  0  0  0  0  0  0  0  0
    1.7032    0.1679   -1.8429 O   0  0  0  0  0  0  0  0  0  0  0  0
    3.8778    0.6597   -0.6394 C   0  0  0  0  0  0  0  0  0  0  0  0
    4.7978    0.2410   -1.5825 C   0  0  0  0  0  0  0  0  0  0  0  0
    5.9329    0.9447   -1.3025 N   0  0  0  0  0  0  0  0  0  0  0  0
    7.1830    0.8606   -2.0145 C   0  0  0  0  0  0  0  0  0  0  0  0
    5.6822    1.7425   -0.2225 C   0  0  0  0  0  0  0  0  0  0  0  0
    4.4498    1.5961    0.2108 N   0  0  0  0  0  0  0  0  0  0  0  0
   -0.1434    0.9589    0.4224 C   0  0  0  0  0  0  0  0  0  0  0  0
   -2.5213   -1.4460   -2.6304 H   0  0  0  0  0  0  0  0  0  0  0  0
   -2.6325   -2.9706   -1.6988 H   0  0  0  0  0  0  0  0  0  0  0  0
   -3.6153   -2.7331   -3.1449 H   0  0  0  0  0  0  0  0  0  0  0  0
   -5.8475   -2.3019   -2.7423 H   0  0  0  0  0  0  0  0  0  0  0  0
   -7.1848   -0.1126    0.6951 H   0  0  0  0  0  0  0  0  0  0  0  0
   -4.8940    0.1660    1.4473 H   0  0  0  0  0  0  0  0  0  0  0  0
   -1.9576   -1.2162   -0.4167 H   0  0  0  0  0  0  0  0  0  0  0  0
   -0.2795   -1.1295    0.9796 H   0  0  0  0  0  0  0  0  0  0  0  0
    0.6011   -0.8536    2.9892 H   0  0  0  0  0  0  0  0  0  0  0  0
   -0.8305   -0.0243    3.5491 H   0  0  0  0  0  0  0  0  0  0  0  0
    1.2355    1.3053    3.9294 H   0  0  0  0  0  0  0  0  0  0  0  0
    0.1170    2.1566    2.8745 H   0  0  0  0  0  0  0  0  0  0  0  0
    2.6365    0.6220    2.1058 H   0  0  0  0  0  0  0  0  0  0  0  0
    2.3321    2.3481    1.8963 H   0  0  0  0  0  0  0  0  0  0  0  0
    4.7221   -0.4704   -2.3942 H   0  0  0  0  0  0  0  0  0  0  0  0
    7.2805   -0.1361   -2.4525 H   0  0  0  0  0  0  0  0  0  0  0  0
    8.0048    1.0354   -1.3152 H   0  0  0  0  0  0  0  0  0  0  0  0
    7.1811    1.6217   -2.7983 H   0  0  0  0  0  0  0  0  0  0  0  0
    6.4247    2.4054    0.2039 H   0  0  0  0  0  0  0  0  0  0  0  0
   -0.4511    0.7603   -0.6110 H   0  0  0  0  0  0  0  0  0  0  0  0
   -0.6212    1.9163    0.6705 H   0  0  0  0  0  0  0  0  0  0  0  0
  1  2  1  0
  2  3  2  0
  3  4  1  0
  4  5  1  0
  4  6  2  0
  6  7  1  0
  7  8  2  0
  8  9  1  0
  9 10  1  0
 10 11  2  0
 10 12  1  0
 12 13  1  0
 13 14  1  0
 14 15  1  0
 15 16  1  0
 16 17  1  0
 17 18  2  0
 17 19  2  0
 17 20  1  0
 20 21  2  0
 21 22  1  0
 22 23  1  0
 22 24  1  0
 24 25  2  0
 16 26  1  0
  8  2  1  0
 26 12  1  0
 25 20  1  0
  1 27  1  0
  1 28  1  0
  1 29  1  0
  3 30  1  0
  6 31  1  0
  7 32  1  0
  9 33  1  0
 12 34  1  0
 13 35  1  0
 13 36  1  0
 14 37  1  0
 14 38  1  0
 15 39  1  0
 15 40  1  0
 21 41  1  0
 23 42  1  0
 23 43  1  0
 23 44  1  0
 24 45  1  0
 26 46  1  0
 26 47  1  0
M  END
$$$$
