
     RDKit          3D

 50 53  0  0  0  0  0  0  0  0999 V2000
   -2.1017    1.0921   -2.5528 O   0  0  0  0  0  0  0  0  0  0  0  0
   -2.0609    0.6529   -1.4085 C   0  0  0  0  0  0  0  0  0  0  0  0
   -3.1539    0.6503   -0.5737 N   0  0  0  0  0  0  0  0  0  0  0  0
   -4.4400    1.1225   -1.0335 C   0  0  0  0  0  0  0  0  0  0  0  0
   -5.4580    1.0603    0.0734 C   0  0  0  0  0  0  0  0  0  0  0  0
   -5.5254    2.0856    1.0289 C   0  0  0  0  0  0  0  0  0  0  0  0
   -6.4587    2.0233    2.0653 C   0  0  0  0  0  0  0  0  0  0  0  0
   -7.3320    0.9371    2.1575 C   0  0  0  0  0  0  0  0  0  0  0  0
   -7.2629   -0.0945    1.2232 C   0  0  0  0  0  0  0  0  0  0  0  0
   -6.3245   -0.0387    0.1898 C   0  0  0  0  0  0  0  0  0  0  0  0
   -0.8029    0.0760   -0.7781 C   0  0  0  0  0  0  0  0  0  0  0  0
   -0.9871   -1.4105   -0.4380 C   0  0  0  0  0  0  0  0  0  0  0  0
    0.2795   -2.2293   -0.6777 C   0  0  0  0  0  0  0  0  0  0  0  0
    1.5317   -1.4582   -0.2846 C   0  0  0  0  0  0  0  0  0  0  0  0
    1.6512   -0.1671   -1.0209 N   0  0  0  0  0  0  0  0  0  0  0  0
    3.0486    0.0193   -1.9900 S   0  0  0  0  0  6  0  0  0  0  0  0
    3.0556    1.3544   -2.5464 O   0  0  0  0  0  0  0  0  0  0  0  0
    3.1505   -1.1568   -2.8291 O   0  0  0  0  0  0  0  0  0  0  0  0
    4.3562   -0.0376   -0.7840 C   0  0  0  0  0  0  0  0  0  0  0  0
    5.3662   -1.0230   -0.8856 C   0  0  0  0  0  0  0  0  0  0  0  0
    6.3953   -1.0773    0.0598 C   0  0  0  0  0  0  0  0  0  0  0  0
    6.3605   -0.1368    1.0635 C   0  0  0  0  0  0  0  0  0  0  0  0
    7.2056    0.0713    2.1145 N   0  0  0  0  0  0  0  0  0  0  0  0
    6.7310    1.1466    2.8307 C   0  0  0  0  0  0  0  0  0  0  0  0
    7.2488    1.5937    3.8433 O   0  0  0  0  0  0  0  0  0  0  0  0
    5.5614    1.6636    2.2541 O   0  0  0  0  0  0  0  0  0  0  0  0
    5.3785    0.8305    1.1623 C   0  0  0  0  0  0  0  0  0  0  0  0
    4.3525    0.9114    0.2481 C   0  0  0  0  0  0  0  0  0  0  0  0
    0.3985    0.2892   -1.6999 C   0  0  0  0  0  0  0  0  0  0  0  0
   -3.1038    0.2221    0.3416 H   0  0  0  0  0  0  0  0  0  0  0  0
   -4.7503    0.5050   -1.8880 H   0  0  0  0  0  0  0  0  0  0  0  0
   -4.3337    2.1485   -1.4052 H   0  0  0  0  0  0  0  0  0  0  0  0
   -4.8563    2.9453    0.9630 H   0  0  0  0  0  0  0  0  0  0  0  0
   -6.5104    2.8268    2.7971 H   0  0  0  0  0  0  0  0  0  0  0  0
   -8.0667    0.8957    2.9581 H   0  0  0  0  0  0  0  0  0  0  0  0
   -7.9480   -0.9366    1.2951 H   0  0  0  0  0  0  0  0  0  0  0  0
   -6.2803   -0.8549   -0.5288 H   0  0  0  0  0  0  0  0  0  0  0  0
   -0.6227    0.6321    0.1526 H   0  0  0  0  0  0  0  0  0  0  0  0
   -1.8133   -1.8586   -1.0040 H   0  0  0  0  0  0  0  0  0  0  0  0
   -1.2719   -1.4931    0.6192 H   0  0  0  0  0  0  0  0  0  0  0  0
    0.3402   -2.5082   -1.7383 H   0  0  0  0  0  0  0  0  0  0  0  0
    0.2221   -3.1669   -0.1114 H   0  0  0  0  0  0  0  0  0  0  0  0
    2.4051   -2.0974   -0.4494 H   0  0  0  0  0  0  0  0  0  0  0  0
    1.5101   -1.2269    0.7875 H   0  0  0  0  0  0  0  0  0  0  0  0
    5.3536   -1.7395   -1.7046 H   0  0  0  0  0  0  0  0  0  0  0  0
    7.1799   -1.8234   -0.0045 H   0  0  0  0  0  0  0  0  0  0  0  0
    8.0376   -0.4406    2.3599 H   0  0  0  0  0  0  0  0  0  0  0  0
    3.5845    1.6753    0.3206 H   0  0  0  0  0  0  0  0  0  0  0  0
    0.4921    1.3586   -1.9230 H   0  0  0  0  0  0  0  0  0  0  0  0
    0.2684   -0.2459   -2.6490 H   0  0  0  0  0  0  0  0  0  0  0  0
  1  2  2  0
  2  3  1  0
  3  4  1  0
  4  5  1  0
  5  6  2  0
  6  7  1  0
  7  8  2  0
  8  9  1  0
  9 10  2  0
  2 11  1  0
 11 12  1  0
 12 13  1  0
 13 14  1  0
 14 15  1  0
 15 16  1  0
 16 17  2  0
 16 18  2  0
 16 19  1  0
 19 20  2  0
 20 21  1  0
 21 22  2  0
 22 23  1  0
 23 24  1  0
 24 25  2  0
 24 26  1  0
 26 27  1  0
 27 28  2  0
 15 29  1  0
 10  5  1  0
 29 11  1  0
 28 19  1  0
 27 22  1  0
  3 30  1  0
  4 31  1  0
  4 32  1  0
  6 33  1  0
  7 34  1  0
  8 35  1  0
  9 36  1  0
 10 37  1  0
 11 38  1  0
 12 39  1  0
 12 40  1  0
 13 41  1  0
 13 42  1  0
 14 43  1  0
 14 44  1  0
 20 45  1  0
 21 46  1  0
 23 47  1  0
 28 48  1  0
 29 49  1  0
 29 50  1  0
M  END
$$$$
