
     RDKit          3D

 47 49  0  0  0  0  0  0  0  0999 V2000
    6.1934    2.1226    0.1529 C   0  0  0  0  0  0  0  0  0  0  0  0
    6.2451    0.6132    0.3787 C   0  0  0  0  0  0  0  0  0  0  0  0
    7.5853    0.0438   -0.0747 C   0  0  0  0  0  0  0  0  0  0  0  0
    5.1572   -0.0486   -0.3268 N   0  0  0  0  0  0  0  0  0  0  0  0
    3.8786   -0.1000    0.1914 C   0  0  0  0  0  0  0  0  0  0  0  0
    3.5799    0.3150    1.3055 O   0  0  0  0  0  0  0  0  0  0  0  0
    2.8872   -0.7288   -0.7626 C   0  0  0  0  0  0  0  0  0  0  0  0
    1.4886   -0.7884   -0.1575 C   0  0  0  0  0  0  0  0  0  0  0  0
    0.5035   -1.3977   -1.0913 C   0  0  0  0  0  0  0  0  0  0  0  0
    0.7120   -1.8395   -2.3183 N   0  0  0  0  0  0  0  0  0  0  0  0
   -0.4825   -2.3171   -2.8100 N   0  0  0  0  0  0  0  0  0  0  0  0
   -1.3917   -2.1551   -1.8742 C   0  0  0  0  0  0  0  0  0  0  0  0
   -2.7639   -2.4573   -1.8118 C   0  0  0  0  0  0  0  0  0  0  0  0
   -3.4408   -2.1654   -0.6944 C   0  0  0  0  0  0  0  0  0  0  0  0
   -2.7101   -1.5212    0.4453 C   0  0  0  0  0  0  0  0  0  0  0  0
   -3.3368   -1.1846    1.6180 N   0  0  0  0  0  0  0  0  0  0  0  0
   -4.7244   -0.7971    1.7560 C   0  0  0  0  0  0  0  0  0  0  0  0
   -5.0186    0.4964    1.0315 C   0  0  0  0  0  0  0  0  0  0  0  0
   -4.3366    1.6794    1.3668 C   0  0  0  0  0  0  0  0  0  0  0  0
   -4.6137    2.8718    0.6958 C   0  0  0  0  0  0  0  0  0  0  0  0
   -5.5754    2.8869   -0.3064 C   0  0  0  0  0  0  0  0  0  0  0  0
   -5.8426    4.0315   -0.9486 F   0  0  0  0  0  0  0  0  0  0  0  0
   -6.2663    1.7319   -0.6510 C   0  0  0  0  0  0  0  0  0  0  0  0
   -5.9905    0.5375    0.0175 C   0  0  0  0  0  0  0  0  0  0  0  0
   -1.4307   -1.2455    0.4122 N   0  0  0  0  0  0  0  0  0  0  0  0
   -0.8202   -1.5769   -0.7626 N   0  0  0  0  0  0  0  0  0  0  0  0
    6.2819    2.3669   -0.9115 H   0  0  0  0  0  0  0  0  0  0  0  0
    7.0055    2.6256    0.6881 H   0  0  0  0  0  0  0  0  0  0  0  0
    5.2459    2.5418    0.5083 H   0  0  0  0  0  0  0  0  0  0  0  0
    6.1240    0.4169    1.4510 H   0  0  0  0  0  0  0  0  0  0  0  0
    7.6252   -1.0373    0.0976 H   0  0  0  0  0  0  0  0  0  0  0  0
    7.7486    0.2129   -1.1449 H   0  0  0  0  0  0  0  0  0  0  0  0
    8.4129    0.5053    0.4742 H   0  0  0  0  0  0  0  0  0  0  0  0
    5.2769   -0.2442   -1.3134 H   0  0  0  0  0  0  0  0  0  0  0  0
    3.2390   -1.7384   -1.0095 H   0  0  0  0  0  0  0  0  0  0  0  0
    2.8773   -0.1365   -1.6863 H   0  0  0  0  0  0  0  0  0  0  0  0
    1.1560    0.2238    0.1056 H   0  0  0  0  0  0  0  0  0  0  0  0
    1.5129   -1.3701    0.7727 H   0  0  0  0  0  0  0  0  0  0  0  0
   -3.2392   -2.9262   -2.6648 H   0  0  0  0  0  0  0  0  0  0  0  0
   -4.4914   -2.3928   -0.5896 H   0  0  0  0  0  0  0  0  0  0  0  0
   -2.7083   -0.6668    2.2253 H   0  0  0  0  0  0  0  0  0  0  0  0
   -4.9548   -0.6602    2.8194 H   0  0  0  0  0  0  0  0  0  0  0  0
   -5.3799   -1.6032    1.4078 H   0  0  0  0  0  0  0  0  0  0  0  0
   -3.5792    1.6785    2.1483 H   0  0  0  0  0  0  0  0  0  0  0  0
   -4.0848    3.7861    0.9467 H   0  0  0  0  0  0  0  0  0  0  0  0
   -7.0145    1.7699   -1.4370 H   0  0  0  0  0  0  0  0  0  0  0  0
   -6.5399   -0.3591   -0.2615 H   0  0  0  0  0  0  0  0  0  0  0  0
  1  2  1  0
  2  3  1  0
  2  4  1  0
  4  5  1  0
  5  6  2  0
  5  7  1  0
  7  8  1  0
  8  9  1  0
  9 10  2  0
 10 11  1  0
 11 12  2  0
 12 13  1  0
 13 14  2  0
 14 15  1  0
 15 16  1  0
 16 17  1  0
 17 18  1  0
 18 19  2  0
 19 20  1  0
 20 21  2  0
 21 22  1  0
 21 23  1  0
 23 24  2  0
 15 25  2  0
 25 26  1  0
 26  9  1  0
 26 12  1  0
 24 18  1  0
  1 27  1  0
  1 28  1  0
  1 29  1  0
  2 30  1  0
  3 31  1  0
  3 32  1  0
  3 33  1  0
  4 34  1  0
  7 35  1  0
  7 36  1  0
  8 37  1  0
  8 38  1  0
 13 39  1  0
 14 40  1  0
 16 41  1  0
 17 42  1  0
 17 43  1  0
 19 44  1  0
 20 45  1  0
 23 46  1  0
 24 47  1  0
M  END
$$$$
