
     RDKit          3D

 52 53  0  0  0  0  0  0  0  0999 V2000
    7.2364    2.0820    0.2262 C   0  0  0  0  0  0  0  0  0  0  0  0
    7.2245    0.7612    0.5777 O   0  0  0  0  0  0  0  0  0  0  0  0
    6.1604    0.0830    0.0927 C   0  0  0  0  0  0  0  0  0  0  0  0
    4.8268    0.7988    0.3173 C   0  0  0  0  0  0  0  0  0  0  0  0
    3.7060    0.0120   -0.1038 C   0  0  0  0  0  0  0  0  0  0  0  0
    2.4431    0.7238   -0.1858 N   0  0  0  0  0  0  0  0  0  0  0  0
    1.2483   -0.2192   -0.3902 C   0  0  0  0  0  0  0  0  0  0  0  0
    0.0059    0.1078   -0.6016 N   0  0  0  0  0  0  0  0  0  0  0  0
   -0.9126   -0.7896   -0.7731 C   0  0  0  0  0  0  0  0  0  0  0  0
   -2.3318   -0.7810   -0.9422 N   0  0  0  0  0  0  0  0  0  0  0  0
   -3.3451   -0.1549   -0.5154 C   0  0  0  0  0  0  0  0  0  0  0  0
   -4.5666    0.5507   -0.0966 C   0  0  0  0  0  0  0  0  0  0  0  0
   -5.6856   -0.1977    0.4870 C   0  0  0  0  0  0  0  0  0  0  0  0
   -6.6839    0.5019    1.1516 C   0  0  0  0  0  0  0  0  0  0  0  0
   -6.5987    1.8596    1.2016 C   0  0  0  0  0  0  0  0  0  0  0  0
   -5.6071    2.5798    0.6692 C   0  0  0  0  0  0  0  0  0  0  0  0
   -4.6284    1.9333    0.0353 C   0  0  0  0  0  0  0  0  0  0  0  0
   -3.4611    2.6021   -0.5611 O   0  0  0  0  0  0  0  0  0  0  0  0
   -3.3784    3.9360   -0.5871 C   0  0  0  0  0  0  0  0  0  0  0  0
   -0.5179   -2.2209   -0.7224 C   0  0  0  0  0  0  0  0  0  0  0  0
   -1.2562   -3.3352   -0.8088 C   0  0  0  0  0  0  0  0  0  0  0  0
   -0.3382   -4.3744   -0.5943 N   0  0  0  0  0  0  0  0  0  0  0  0
    0.8174   -3.9258   -0.3961 N   0  0  0  0  0  0  0  0  0  0  0  0
    1.9599   -4.6186    0.0231 C   0  0  0  0  0  0  0  0  0  0  0  0
    0.7544   -2.5487   -0.5070 C   0  0  0  0  0  0  0  0  0  0  0  0
    1.6898   -1.5050   -0.3183 N   0  0  0  0  0  0  0  0  0  0  0  0
    0.6921    0.0000    0.0000 Cl  0  0  0  0  0  0  0  0  0  0  0  0
    8.1425    2.5601    0.6504 H   0  0  0  0  0  0  0  0  0  0  0  0
    7.1568    2.2452   -0.8754 H   0  0  0  0  0  0  0  0  0  0  0  0
    6.3738    2.6083    0.8085 H   0  0  0  0  0  0  0  0  0  0  0  0
    6.0512   -0.9081    0.5751 H   0  0  0  0  0  0  0  0  0  0  0  0
    6.3406   -0.1080   -1.0161 H   0  0  0  0  0  0  0  0  0  0  0  0
    4.8982    1.7948   -0.1808 H   0  0  0  0  0  0  0  0  0  0  0  0
    4.7850    0.9386    1.4310 H   0  0  0  0  0  0  0  0  0  0  0  0
    3.8756   -0.4705   -1.1657 H   0  0  0  0  0  0  0  0  0  0  0  0
    3.5416   -0.9285    0.5109 H   0  0  0  0  0  0  0  0  0  0  0  0
    2.3071    1.6985   -0.1256 H   0  0  0  0  0  0  0  0  0  0  0  0
   -2.6240   -1.3381   -1.8894 H   0  0  0  0  0  0  0  0  0  0  0  0
   -3.5544   -1.0059    0.5834 H   0  0  0  0  0  0  0  0  0  0  0  0
   -4.1376   -1.0984   -1.0882 H   0  0  0  0  0  0  0  0  0  0  0  0
   -5.6690   -1.2579    0.3829 H   0  0  0  0  0  0  0  0  0  0  0  0
   -7.4396    0.0145    1.5194 H   0  0  0  0  0  0  0  0  0  0  0  0
   -7.3523    2.4362    1.6954 H   0  0  0  0  0  0  0  0  0  0  0  0
   -5.6271    3.6459    0.7508 H   0  0  0  0  0  0  0  0  0  0  0  0
   -3.9113    4.4547    0.3295 H   0  0  0  0  0  0  0  0  0  0  0  0
   -2.3800    4.2982   -0.6879 H   0  0  0  0  0  0  0  0  0  0  0  0
   -4.0247    4.4074   -1.3691 H   0  0  0  0  0  0  0  0  0  0  0  0
   -2.3187   -3.4085   -1.0146 H   0  0  0  0  0  0  0  0  0  0  0  0
    1.6516   -5.1167    1.0270 H   0  0  0  0  0  0  0  0  0  0  0  0
    2.8181   -3.9270    0.2991 H   0  0  0  0  0  0  0  0  0  0  0  0
    2.3352   -5.3958   -0.5828 H   0  0  0  0  0  0  0  0  0  0  0  0
   -0.6921    0.0000    0.0000 H   0  0  0  0  0  0  0  0  0  0  0  0
  1  2  1  0
  2  3  1  0
  3  4  1  0
  4  5  1  0
  5  6  1  0
  6  7  1  0
  7  8  2  0
  8  9  1  0
  9 10  1  0
 10 11  1  0
 11 12  1  0
 12 13  2  0
 13 14  1  0
 14 15  2  0
 15 16  1  0
 16 17  2  0
 17 18  1  0
 18 19  1  0
  9 20  2  0
 20 21  1  0
 21 22  2  0
 22 23  1  0
 23 24  1  0
 23 25  1  0
 25 26  2  0
 26  7  1  0
 17 12  1  0
 25 20  1  0
  1 28  1  0
  1 29  1  0
  1 30  1  0
  3 31  1  0
  3 32  1  0
  4 33  1  0
  4 34  1  0
  5 35  1  0
  5 36  1  0
  6 37  1  0
 10 38  1  0
 11 39  1  0
 11 40  1  0
 13 41  1  0
 14 42  1  0
 15 43  1  0
 16 44  1  0
 19 45  1  0
 19 46  1  0
 19 47  1  0
 21 48  1  0
 24 49  1  0
 24 50  1  0
 24 51  1  0
 27 52  1  0
M  END
$$$$
