
     RDKit          3D

 36 37  0  0  0  0  0  0  0  0999 V2000
    4.8754    1.9961   -0.5271 C   0  0  0  0  0  0  0  0  0  0  0  0
    4.6885    2.6163    1.1681 S   0  0  0  0  0  0  0  0  0  0  0  0
    3.6241    1.3568    1.8560 C   0  0  0  0  0  0  0  0  0  0  0  0
    3.9850    0.7713    3.0724 C   0  0  0  0  0  0  0  0  0  0  0  0
    3.1745   -0.2037    3.6500 C   0  0  0  0  0  0  0  0  0  0  0  0
    1.9945   -0.5935    3.0134 C   0  0  0  0  0  0  0  0  0  0  0  0
    1.6111   -0.0095    1.7997 C   0  0  0  0  0  0  0  0  0  0  0  0
    0.3984   -0.4549    1.2301 N   0  0  0  0  0  0  0  0  0  0  0  0
   -0.1702   -0.0532    0.0310 C   0  0  0  0  0  0  0  0  0  0  0  0
    0.2992    0.7495   -0.7647 O   0  0  0  0  0  0  0  0  0  0  0  0
   -1.5029   -0.7397   -0.2105 C   0  0  0  0  0  0  0  0  0  0  0  0
   -2.1827   -0.2768   -1.5059 C   0  0  0  0  0  0  0  0  0  0  0  0
   -1.5352   -0.8739   -2.7586 C   0  0  0  0  0  0  0  0  0  0  0  0
   -3.6121   -0.5833   -1.4549 N   0  0  0  0  0  0  0  0  0  0  0  0
   -4.6204    0.3302   -1.3041 C   0  0  0  0  0  0  0  0  0  0  0  0
   -5.7730   -0.4181   -1.2514 C   0  0  0  0  0  0  0  0  0  0  0  0
   -5.4901   -1.7552   -1.3614 N   0  0  0  0  0  0  0  0  0  0  0  0
   -4.1844   -1.8245   -1.4891 C   0  0  0  0  0  0  0  0  0  0  0  0
    2.4296    0.9714    1.2327 C   0  0  0  0  0  0  0  0  0  0  0  0
    5.2074    0.9529   -0.5190 H   0  0  0  0  0  0  0  0  0  0  0  0
    3.9376    2.0797   -1.0824 H   0  0  0  0  0  0  0  0  0  0  0  0
    5.6296    2.5967   -1.0422 H   0  0  0  0  0  0  0  0  0  0  0  0
    4.9010    1.0707    3.5786 H   0  0  0  0  0  0  0  0  0  0  0  0
    3.4629   -0.6583    4.5980 H   0  0  0  0  0  0  0  0  0  0  0  0
    1.3816   -1.3568    3.4865 H   0  0  0  0  0  0  0  0  0  0  0  0
   -0.1089   -1.1486    1.7656 H   0  0  0  0  0  0  0  0  0  0  0  0
   -1.3439   -1.8254   -0.2240 H   0  0  0  0  0  0  0  0  0  0  0  0
   -2.1445   -0.5082    0.6504 H   0  0  0  0  0  0  0  0  0  0  0  0
   -2.1173    0.8158   -1.5851 H   0  0  0  0  0  0  0  0  0  0  0  0
   -1.5395   -1.9690   -2.7344 H   0  0  0  0  0  0  0  0  0  0  0  0
   -2.0734   -0.5622   -3.6613 H   0  0  0  0  0  0  0  0  0  0  0  0
   -0.4957   -0.5492   -2.8633 H   0  0  0  0  0  0  0  0  0  0  0  0
   -4.4463    1.3959   -1.2455 H   0  0  0  0  0  0  0  0  0  0  0  0
   -6.7899   -0.0653   -1.1357 H   0  0  0  0  0  0  0  0  0  0  0  0
   -3.6153   -2.7390   -1.6018 H   0  0  0  0  0  0  0  0  0  0  0  0
    2.1452    1.4649    0.3113 H   0  0  0  0  0  0  0  0  0  0  0  0
  1  2  1  0
  2  3  1  0
  3  4  2  0
  4  5  1  0
  5  6  2  0
  6  7  1  0
  7  8  1  0
  8  9  1  0
  9 10  2  0
  9 11  1  0
 11 12  1  0
 12 13  1  0
 12 14  1  0
 14 15  1  0
 15 16  2  0
 16 17  1  0
 17 18  2  0
  7 19  2  0
 19  3  1  0
 18 14  1  0
  1 20  1  0
  1 21  1  0
  1 22  1  0
  4 23  1  0
  5 24  1  0
  6 25  1  0
  8 26  1  0
 11 27  1  0
 11 28  1  0
 12 29  1  0
 13 30  1  0
 13 31  1  0
 13 32  1  0
 15 33  1  0
 16 34  1  0
 18 35  1  0
 19 36  1  0
M  END
$$$$
