
     RDKit          3D

 58 60  0  0  0  0  0  0  0  0999 V2000
    7.6711   -0.7130    1.7454 C   0  0  0  0  0  0  0  0  0  0  0  0
    6.2830   -0.2966    2.2063 C   0  0  0  0  0  0  0  0  0  0  0  0
    5.9796    1.1846    1.9690 C   0  0  0  0  0  0  0  0  0  0  0  0
    5.9581    1.6221    0.4998 C   0  0  0  0  0  0  0  0  0  0  0  0
    4.9035    0.9791   -0.2827 N   0  0  0  0  0  0  0  0  0  0  0  0
    5.3092   -0.0416   -1.2409 C   0  0  0  0  0  0  0  0  0  0  0  0
    3.5927    1.4242   -0.1047 C   0  0  0  0  0  0  0  0  0  0  0  0
    3.2991    2.4250    0.5463 O   0  0  0  0  0  0  0  0  0  0  0  0
    2.4829    0.6533   -0.7066 C   0  0  0  0  0  0  0  0  0  0  0  0
    1.5742    1.3116   -1.5378 C   0  0  0  0  0  0  0  0  0  0  0  0
    0.5032    0.6061   -2.0894 C   0  0  0  0  0  0  0  0  0  0  0  0
    0.3254   -0.7576   -1.8057 C   0  0  0  0  0  0  0  0  0  0  0  0
   -0.8581   -1.5127   -2.3780 C   0  0  0  0  0  0  0  0  0  0  0  0
   -2.0297   -1.4152   -1.5202 N   0  0  0  0  0  0  0  0  0  0  0  0
   -2.1933   -2.3738   -0.5354 C   0  0  0  0  0  0  0  0  0  0  0  0
   -1.4371   -3.3291   -0.3620 O   0  0  0  0  0  0  0  0  0  0  0  0
   -3.2794   -2.2367    0.2821 N   0  0  0  0  0  0  0  0  0  0  0  0
   -4.2101   -1.2071    0.1736 C   0  0  0  0  0  0  0  0  0  0  0  0
   -5.2830   -1.1400    1.0633 C   0  0  0  0  0  0  0  0  0  0  0  0
   -6.2195   -0.1053    0.9474 C   0  0  0  0  0  0  0  0  0  0  0  0
   -7.3093    0.0469    1.7686 O   0  0  0  0  0  0  0  0  0  0  0  0
   -7.4335   -0.8298    2.8790 C   0  0  0  0  0  0  0  0  0  0  0  0
   -6.0760    0.8617   -0.0726 C   0  0  0  0  0  0  0  0  0  0  0  0
   -7.0411    1.8367   -0.1172 O   0  0  0  0  0  0  0  0  0  0  0  0
   -6.9107    2.8519   -1.1035 C   0  0  0  0  0  0  0  0  0  0  0  0
   -4.9958    0.7807   -0.9565 C   0  0  0  0  0  0  0  0  0  0  0  0
   -4.0663   -0.2561   -0.8264 C   0  0  0  0  0  0  0  0  0  0  0  0
   -2.9179   -0.3669   -1.7471 C   0  0  0  0  0  0  0  0  0  0  0  0
   -2.8069    0.4490   -2.6599 O   0  0  0  0  0  0  0  0  0  0  0  0
    1.2293   -1.3992   -0.9437 C   0  0  0  0  0  0  0  0  0  0  0  0
    2.3015   -0.6967   -0.3903 C   0  0  0  0  0  0  0  0  0  0  0  0
    7.7790   -0.6291    0.6606 H   0  0  0  0  0  0  0  0  0  0  0  0
    7.8590   -1.7568    2.0170 H   0  0  0  0  0  0  0  0  0  0  0  0
    8.4424   -0.0968    2.2183 H   0  0  0  0  0  0  0  0  0  0  0  0
    6.2030   -0.4950    3.2823 H   0  0  0  0  0  0  0  0  0  0  0  0
    5.5281   -0.9237    1.7201 H   0  0  0  0  0  0  0  0  0  0  0  0
    6.7258    1.7888    2.4997 H   0  0  0  0  0  0  0  0  0  0  0  0
    5.0120    1.4129    2.4326 H   0  0  0  0  0  0  0  0  0  0  0  0
    5.7884    2.7051    0.4661 H   0  0  0  0  0  0  0  0  0  0  0  0
    6.9281    1.4477    0.0228 H   0  0  0  0  0  0  0  0  0  0  0  0
    5.5815   -0.9508   -0.7003 H   0  0  0  0  0  0  0  0  0  0  0  0
    4.5208   -0.2679   -1.9611 H   0  0  0  0  0  0  0  0  0  0  0  0
    6.1755    0.3207   -1.8026 H   0  0  0  0  0  0  0  0  0  0  0  0
    1.6952    2.3719   -1.7474 H   0  0  0  0  0  0  0  0  0  0  0  0
   -0.2028    1.1309   -2.7319 H   0  0  0  0  0  0  0  0  0  0  0  0
   -1.0883   -1.1239   -3.3777 H   0  0  0  0  0  0  0  0  0  0  0  0
   -0.5843   -2.5652   -2.5222 H   0  0  0  0  0  0  0  0  0  0  0  0
   -3.3703   -2.9447    0.9997 H   0  0  0  0  0  0  0  0  0  0  0  0
   -5.3765   -1.8973    1.8332 H   0  0  0  0  0  0  0  0  0  0  0  0
   -7.5881   -1.8620    2.5492 H   0  0  0  0  0  0  0  0  0  0  0  0
   -6.5675   -0.7518    3.5444 H   0  0  0  0  0  0  0  0  0  0  0  0
   -8.3178   -0.5267    3.4477 H   0  0  0  0  0  0  0  0  0  0  0  0
   -7.7491    3.5448   -0.9829 H   0  0  0  0  0  0  0  0  0  0  0  0
   -5.9859    3.4217   -0.9647 H   0  0  0  0  0  0  0  0  0  0  0  0
   -6.9703    2.4311   -2.1126 H   0  0  0  0  0  0  0  0  0  0  0  0
   -4.8539    1.5059   -1.7516 H   0  0  0  0  0  0  0  0  0  0  0  0
    1.0915   -2.4486   -0.6857 H   0  0  0  0  0  0  0  0  0  0  0  0
    2.9796   -1.1968    0.2960 H   0  0  0  0  0  0  0  0  0  0  0  0
  1  2  1  0
  2  3  1  0
  3  4  1  0
  4  5  1  0
  5  6  1  0
  5  7  1  0
  7  8  2  0
  7  9  1  0
  9 10  2  0
 10 11  1  0
 11 12  2  0
 12 13  1  0
 13 14  1  0
 14 15  1  0
 15 16  2  0
 15 17  1  0
 17 18  1  0
 18 19  2  0
 19 20  1  0
 20 21  1  0
 21 22  1  0
 20 23  2  0
 23 24  1  0
 24 25  1  0
 23 26  1  0
 26 27  2  0
 27 28  1  0
 28 29  2  0
 12 30  1  0
 30 31  2  0
 31  9  1  0
 28 14  1  0
 27 18  1  0
  1 32  1  0
  1 33  1  0
  1 34  1  0
  2 35  1  0
  2 36  1  0
  3 37  1  0
  3 38  1  0
  4 39  1  0
  4 40  1  0
  6 41  1  0
  6 42  1  0
  6 43  1  0
 10 44  1  0
 11 45  1  0
 13 46  1  0
 13 47  1  0
 17 48  1  0
 19 49  1  0
 22 50  1  0
 22 51  1  0
 22 52  1  0
 25 53  1  0
 25 54  1  0
 25 55  1  0
 26 56  1  0
 30 57  1  0
 31 58  1  0
M  END
$$$$
