
     RDKit          3D

 50 53  0  0  0  0  0  0  0  0999 V2000
    9.6597   -0.9616   -0.8806 C   0  0  0  0  0  0  0  0  0  0  0  0
    8.7004   -0.0657   -0.1871 C   0  0  0  0  0  0  0  0  0  0  0  0
    9.0071    1.0609    0.5515 C   0  0  0  0  0  0  0  0  0  0  0  0
    7.5703    1.7648    1.1615 S   0  0  0  0  0  0  0  0  0  0  0  0
    6.6613    0.5333    0.4217 C   0  0  0  0  0  0  0  0  0  0  0  0
    5.2959    0.4484    0.4872 N   0  0  0  0  0  0  0  0  0  0  0  0
    4.4395    1.2660    1.1945 C   0  0  0  0  0  0  0  0  0  0  0  0
    4.7778    2.1960    1.9180 O   0  0  0  0  0  0  0  0  0  0  0  0
    3.0169    0.9144    1.0144 C   0  0  0  0  0  0  0  0  0  0  0  0
    2.4007    0.1068    0.0149 C   0  0  0  0  0  0  0  0  0  0  0  0
    1.0585    0.1143    0.3180 C   0  0  0  0  0  0  0  0  0  0  0  0
   -0.1380   -0.4739   -0.2734 C   0  0  0  0  0  0  0  0  0  0  0  0
   -0.0980   -1.0232   -1.5605 C   0  0  0  0  0  0  0  0  0  0  0  0
   -1.2400   -1.5887   -2.1390 C   0  0  0  0  0  0  0  0  0  0  0  0
   -2.4631   -1.6172   -1.4528 C   0  0  0  0  0  0  0  0  0  0  0  0
   -3.6448   -2.2645   -2.1200 C   0  0  0  0  0  0  0  0  0  0  0  0
   -2.5058   -1.0701   -0.1577 C   0  0  0  0  0  0  0  0  0  0  0  0
   -4.0031   -1.0840    0.8181 S   0  0  0  0  0  6  0  0  0  0  0  0
   -4.5827   -2.4061    0.7233 O   0  0  0  0  0  0  0  0  0  0  0  0
   -3.7228   -0.4883    2.1080 O   0  0  0  0  0  0  0  0  0  0  0  0
   -5.0110    0.0078   -0.0173 N   0  0  0  0  0  0  0  0  0  0  0  0
   -6.4576   -0.1325    0.3545 C   0  0  0  0  0  0  0  0  0  0  0  0
   -7.2477    1.0928   -0.1126 C   0  0  0  0  0  0  0  0  0  0  0  0
   -6.8183    2.3127    0.5086 O   0  0  0  0  0  0  0  0  0  0  0  0
   -5.4396    2.2927    0.9057 C   0  0  0  0  0  0  0  0  0  0  0  0
   -4.5658    1.4411   -0.0199 C   0  0  0  0  0  0  0  0  0  0  0  0
   -1.3533   -0.5106    0.4235 C   0  0  0  0  0  0  0  0  0  0  0  0
    0.8755    0.8806    1.4278 O   0  0  0  0  0  0  0  0  0  0  0  0
    2.0830    1.3855    1.8571 N   0  0  0  0  0  0  0  0  0  0  0  0
    7.3464   -0.3575   -0.2569 N   0  0  0  0  0  0  0  0  0  0  0  0
    9.7915   -1.8859   -0.3098 H   0  0  0  0  0  0  0  0  0  0  0  0
   10.6380   -0.4845   -0.9958 H   0  0  0  0  0  0  0  0  0  0  0  0
    9.2890   -1.2202   -1.8774 H   0  0  0  0  0  0  0  0  0  0  0  0
    9.9761    1.4932    0.7561 H   0  0  0  0  0  0  0  0  0  0  0  0
    4.9446   -0.3541   -0.0098 H   0  0  0  0  0  0  0  0  0  0  0  0
    2.8636   -0.4004   -0.8171 H   0  0  0  0  0  0  0  0  0  0  0  0
    0.8219   -1.0187   -2.1408 H   0  0  0  0  0  0  0  0  0  0  0  0
   -1.1632   -2.0118   -3.1399 H   0  0  0  0  0  0  0  0  0  0  0  0
   -3.8607   -3.2318   -1.6572 H   0  0  0  0  0  0  0  0  0  0  0  0
   -3.4481   -2.4465   -3.1827 H   0  0  0  0  0  0  0  0  0  0  0  0
   -4.5288   -1.6237   -2.0763 H   0  0  0  0  0  0  0  0  0  0  0  0
   -6.5526   -0.2341    1.4419 H   0  0  0  0  0  0  0  0  0  0  0  0
   -6.8583   -1.0309   -0.1262 H   0  0  0  0  0  0  0  0  0  0  0  0
   -8.3111    0.9668    0.1137 H   0  0  0  0  0  0  0  0  0  0  0  0
   -7.1559    1.2202   -1.1975 H   0  0  0  0  0  0  0  0  0  0  0  0
   -5.0869    3.3289    0.9080 H   0  0  0  0  0  0  0  0  0  0  0  0
   -5.3894    1.9276    1.9378 H   0  0  0  0  0  0  0  0  0  0  0  0
   -4.6486    1.7992   -1.0530 H   0  0  0  0  0  0  0  0  0  0  0  0
   -3.5161    1.5380    0.2702 H   0  0  0  0  0  0  0  0  0  0  0  0
   -1.4059   -0.1053    1.4340 H   0  0  0  0  0  0  0  0  0  0  0  0
  1  2  1  0
  2  3  2  0
  3  4  1  0
  4  5  1  0
  5  6  1  0
  6  7  1  0
  7  8  2  0
  7  9  1  0
  9 10  1  0
 10 11  2  0
 11 12  1  0
 12 13  2  0
 13 14  1  0
 14 15  2  0
 15 16  1  0
 15 17  1  0
 17 18  1  0
 18 19  2  0
 18 20  2  0
 18 21  1  0
 21 22  1  0
 22 23  1  0
 23 24  1  0
 24 25  1  0
 25 26  1  0
 17 27  2  0
 11 28  1  0
 28 29  1  0
  5 30  2  0
 30  2  1  0
 29  9  2  0
 27 12  1  0
 26 21  1  0
  1 31  1  0
  1 32  1  0
  1 33  1  0
  3 34  1  0
  6 35  1  0
 10 36  1  0
 13 37  1  0
 14 38  1  0
 16 39  1  0
 16 40  1  0
 16 41  1  0
 22 42  1  0
 22 43  1  0
 23 44  1  0
 23 45  1  0
 25 46  1  0
 25 47  1  0
 26 48  1  0
 26 49  1  0
 27 50  1  0
M  END
$$$$
