
     RDKit          3D

 34 37  0  0  0  0  0  0  0  0999 V2000
   -1.1821    1.0520   -2.9750 O   0  0  0  0  0  0  0  0  0  0  0  0
   -0.2446    1.7827   -2.1481 S   0  0  0  0  0  6  0  0  0  0  0  0
    0.5220    2.8821   -2.6930 O   0  0  0  0  0  0  0  0  0  0  0  0
   -1.0763    2.3852   -0.7901 N   0  0  0  0  0  0  0  0  0  0  0  0
   -1.9288    1.4546   -0.1180 C   0  0  0  0  0  0  0  0  0  0  0  0
   -1.4095    0.7104    0.9567 C   0  0  0  0  0  0  0  0  0  0  0  0
   -2.1997   -0.2423    1.6067 C   0  0  0  0  0  0  0  0  0  0  0  0
   -3.4876   -0.4225    1.1510 C   0  0  0  0  0  0  0  0  0  0  0  0
   -3.9907    0.3019    0.0953 C   0  0  0  0  0  0  0  0  0  0  0  0
   -3.2357    1.2473   -0.5662 C   0  0  0  0  0  0  0  0  0  0  0  0
   -5.2764   -0.0326   -0.1957 O   0  0  0  0  0  0  0  0  0  0  0  0
   -5.5247   -1.0519    0.7952 C   0  0  0  0  0  0  0  0  0  0  0  0
   -4.3934   -1.3011    1.6559 O   0  0  0  0  0  0  0  0  0  0  0  0
    0.9370    0.5726   -1.6080 C   0  0  0  0  0  0  0  0  0  0  0  0
    1.0365   -0.7852   -1.8310 C   0  0  0  0  0  0  0  0  0  0  0  0
    2.1606   -1.3609   -1.1685 C   0  0  0  0  0  0  0  0  0  0  0  0
    2.8923   -0.4283   -0.4558 C   0  0  0  0  0  0  0  0  0  0  0  0
    4.0748   -0.6494    0.3297 C   0  0  0  0  0  0  0  0  0  0  0  0
    4.8601    0.2170    1.0654 C   0  0  0  0  0  0  0  0  0  0  0  0
    5.8783   -0.5816    1.6174 C   0  0  0  0  0  0  0  0  0  0  0  0
    5.7612   -1.8631    1.2680 N   0  0  0  0  0  0  0  0  0  0  0  0
    4.6682   -1.8763    0.4857 N   0  0  0  0  0  0  0  0  0  0  0  0
    2.2002    1.1362   -0.6086 S   0  0  0  0  0  0  0  0  0  0  0  0
   -1.5569    3.2373   -1.0831 H   0  0  0  0  0  0  0  0  0  0  0  0
   -0.3933    0.8816    1.3022 H   0  0  0  0  0  0  0  0  0  0  0  0
   -1.8154   -0.8185    2.4409 H   0  0  0  0  0  0  0  0  0  0  0  0
   -3.6488    1.7879   -1.4096 H   0  0  0  0  0  0  0  0  0  0  0  0
   -5.7868   -1.9841    0.2815 H   0  0  0  0  0  0  0  0  0  0  0  0
   -6.3740   -0.7399    1.4139 H   0  0  0  0  0  0  0  0  0  0  0  0
    0.3276   -1.3330   -2.4418 H   0  0  0  0  0  0  0  0  0  0  0  0
    2.4033   -2.4147   -1.2252 H   0  0  0  0  0  0  0  0  0  0  0  0
    4.7243    1.2819    1.1911 H   0  0  0  0  0  0  0  0  0  0  0  0
    6.6978   -0.2823    2.2585 H   0  0  0  0  0  0  0  0  0  0  0  0
    4.3806   -2.7631    0.0891 H   0  0  0  0  0  0  0  0  0  0  0  0
  1  2  2  0
  2  3  2  0
  2  4  1  0
  4  5  1  0
  5  6  2  0
  6  7  1  0
  7  8  2  0
  8  9  1  0
  9 10  2  0
  9 11  1  0
 11 12  1  0
 12 13  1  0
  2 14  1  0
 14 15  2  0
 15 16  1  0
 16 17  2  0
 17 18  1  0
 18 19  2  0
 19 20  1  0
 20 21  2  0
 21 22  1  0
 17 23  1  0
 10  5  1  0
 23 14  1  0
 13  8  1  0
 22 18  1  0
  4 24  1  0
  6 25  1  0
  7 26  1  0
 10 27  1  0
 12 28  1  0
 12 29  1  0
 15 30  1  0
 16 31  1  0
 19 32  1  0
 20 33  1  0
 22 34  1  0
M  END
$$$$
