
     RDKit          3D

 53 56  0  0  0  0  0  0  0  0999 V2000
   -6.5373    1.9856   -1.3275 C   0  0  0  0  0  0  0  0  0  0  0  0
   -5.7469    0.8161   -1.1503 O   0  0  0  0  0  0  0  0  0  0  0  0
   -5.6902    0.2891    0.1158 C   0  0  0  0  0  0  0  0  0  0  0  0
   -6.1055    0.9621    1.2706 C   0  0  0  0  0  0  0  0  0  0  0  0
   -5.9612    0.3664    2.5279 C   0  0  0  0  0  0  0  0  0  0  0  0
   -5.3986   -0.9023    2.6428 C   0  0  0  0  0  0  0  0  0  0  0  0
   -4.9909   -1.5841    1.4987 C   0  0  0  0  0  0  0  0  0  0  0  0
   -5.1417   -1.0022    0.2258 C   0  0  0  0  0  0  0  0  0  0  0  0
   -4.6608   -1.7646   -0.9847 C   0  0  0  0  0  0  0  0  0  0  0  0
   -3.2697   -1.4662   -1.2570 N   0  0  0  0  0  0  0  0  0  0  0  0
   -2.2625   -2.2997   -0.8228 C   0  0  0  0  0  0  0  0  0  0  0  0
   -2.4592   -3.3876   -0.2892 O   0  0  0  0  0  0  0  0  0  0  0  0
   -0.8711   -1.8229   -1.0012 C   0  0  0  0  0  0  0  0  0  0  0  0
   -0.5108   -0.9041   -1.9818 C   0  0  0  0  0  0  0  0  0  0  0  0
    0.7559   -0.4546   -2.1692 N   0  0  0  0  0  0  0  0  0  0  0  0
    1.7047   -0.9643   -1.3466 C   0  0  0  0  0  0  0  0  0  0  0  0
    1.4496   -1.9155   -0.3616 C   0  0  0  0  0  0  0  0  0  0  0  0
    2.4747   -2.4095    0.4986 N   0  0  0  0  0  0  0  0  0  0  0  0
    2.9740   -1.4162    1.7789 S   0  0  0  0  0  6  0  0  0  0  0  0
    3.6776   -2.2799    2.7033 O   0  0  0  0  0  0  0  0  0  0  0  0
    1.8550   -0.6019    2.2038 O   0  0  0  0  0  0  0  0  0  0  0  0
    4.1910   -0.3776    1.0183 C   0  0  0  0  0  0  0  0  0  0  0  0
    5.3297   -0.9633    0.4516 C   0  0  0  0  0  0  0  0  0  0  0  0
    6.2846   -0.1545   -0.1620 C   0  0  0  0  0  0  0  0  0  0  0  0
    6.1007    1.2269   -0.2012 C   0  0  0  0  0  0  0  0  0  0  0  0
    4.9771    1.8076    0.4009 C   0  0  0  0  0  0  0  0  0  0  0  0
    4.0094    1.0068    0.9998 C   0  0  0  0  0  0  0  0  0  0  0  0
    4.7571    3.1611    0.4311 O   0  0  0  0  0  0  0  0  0  0  0  0
    5.9457    3.8922    0.1042 C   0  0  0  0  0  0  0  0  0  0  0  0
    6.6216    3.2915   -1.1169 C   0  0  0  0  0  0  0  0  0  0  0  0
    7.0682    1.9560   -0.8429 O   0  0  0  0  0  0  0  0  0  0  0  0
    0.1369   -2.3417   -0.1821 C   0  0  0  0  0  0  0  0  0  0  0  0
   -7.5699    1.8245   -0.9970 H   0  0  0  0  0  0  0  0  0  0  0  0
   -6.5600    2.2141   -2.3979 H   0  0  0  0  0  0  0  0  0  0  0  0
   -6.0866    2.8452   -0.8206 H   0  0  0  0  0  0  0  0  0  0  0  0
   -6.5302    1.9601    1.2315 H   0  0  0  0  0  0  0  0  0  0  0  0
   -6.2762    0.9007    3.4207 H   0  0  0  0  0  0  0  0  0  0  0  0
   -5.2655   -1.3553    3.6228 H   0  0  0  0  0  0  0  0  0  0  0  0
   -4.5384   -2.5716    1.5972 H   0  0  0  0  0  0  0  0  0  0  0  0
   -4.8021   -2.8421   -0.8371 H   0  0  0  0  0  0  0  0  0  0  0  0
   -5.2382   -1.4952   -1.8758 H   0  0  0  0  0  0  0  0  0  0  0  0
   -3.0751   -0.4940   -1.4542 H   0  0  0  0  0  0  0  0  0  0  0  0
   -1.2327   -0.4973   -2.6848 H   0  0  0  0  0  0  0  0  0  0  0  0
    2.7077   -0.5902   -1.5303 H   0  0  0  0  0  0  0  0  0  0  0  0
    2.3956   -3.3776    0.8158 H   0  0  0  0  0  0  0  0  0  0  0  0
    5.4733   -2.0398    0.4822 H   0  0  0  0  0  0  0  0  0  0  0  0
    7.1674   -0.5973   -0.6159 H   0  0  0  0  0  0  0  0  0  0  0  0
    3.1345    1.4668    1.4538 H   0  0  0  0  0  0  0  0  0  0  0  0
    5.6531    4.9287   -0.0952 H   0  0  0  0  0  0  0  0  0  0  0  0
    6.6114    3.8864    0.9775 H   0  0  0  0  0  0  0  0  0  0  0  0
    5.9401    3.2616   -1.9783 H   0  0  0  0  0  0  0  0  0  0  0  0
    7.4988    3.8861   -1.3951 H   0  0  0  0  0  0  0  0  0  0  0  0
   -0.1140   -3.0626    0.5938 H   0  0  0  0  0  0  0  0  0  0  0  0
  1  2  1  0
  2  3  1  0
  3  4  2  0
  4  5  1  0
  5  6  2  0
  6  7  1  0
  7  8  2  0
  8  9  1  0
  9 10  1  0
 10 11  1  0
 11 12  2  0
 11 13  1  0
 13 14  2  0
 14 15  1  0
 15 16  2  0
 16 17  1  0
 17 18  1  0
 18 19  1  0
 19 20  2  0
 19 21  2  0
 19 22  1  0
 22 23  2  0
 23 24  1  0
 24 25  2  0
 25 26  1  0
 26 27  2  0
 26 28  1  0
 28 29  1  0
 29 30  1  0
 30 31  1  0
 17 32  2  0
  8  3  1  0
 32 13  1  0
 27 22  1  0
 31 25  1  0
  1 33  1  0
  1 34  1  0
  1 35  1  0
  4 36  1  0
  5 37  1  0
  6 38  1  0
  7 39  1  0
  9 40  1  0
  9 41  1  0
 10 42  1  0
 14 43  1  0
 16 44  1  0
 18 45  1  0
 23 46  1  0
 24 47  1  0
 27 48  1  0
 29 49  1  0
 29 50  1  0
 30 51  1  0
 30 52  1  0
 32 53  1  0
M  END
$$$$
