
     RDKit          3D

 57 60  0  0  0  0  0  0  0  0999 V2000
    8.1769    1.3867   -1.3209 C   0  0  0  0  0  0  0  0  0  0  0  0
    6.9424    0.6269   -0.8210 C   0  0  0  0  0  0  0  0  0  0  0  0
    6.2922   -0.1215   -1.9679 C   0  0  0  0  0  0  0  0  0  0  0  0
    5.7439   -1.7361   -1.3808 S   0  0  0  0  0  0  0  0  0  0  0  0
    4.4332   -1.3278   -0.2369 C   0  0  0  0  0  0  0  0  0  0  0  0
    3.6375   -2.4632    0.0574 C   0  0  0  0  0  0  0  0  0  0  0  0
    2.5130   -2.3926    0.8767 C   0  0  0  0  0  0  0  0  0  0  0  0
    2.1573   -1.1658    1.4128 C   0  0  0  0  0  0  0  0  0  0  0  0
    0.7227   -1.0565    2.4507 S   0  0  0  0  0  6  0  0  0  0  0  0
    0.7774   -2.1713    3.3716 O   0  0  0  0  0  0  0  0  0  0  0  0
    0.6077    0.3044    2.9296 O   0  0  0  0  0  0  0  0  0  0  0  0
   -0.5534   -1.3310    1.3545 N   0  0  0  0  0  0  0  0  0  0  0  0
   -0.6464   -0.3574    0.2194 C   0  0  0  0  0  0  0  0  0  0  0  0
   -2.0615   -0.3391   -0.3893 C   0  0  0  0  0  0  0  0  0  0  0  0
   -3.0844    0.1558    0.5560 N   0  0  0  0  0  0  0  0  0  0  0  0
   -4.4794   -0.1191    0.1352 C   0  0  0  0  0  0  0  0  0  0  0  0
   -5.4999    0.7036    0.9717 C   0  0  0  0  0  0  0  0  0  0  0  0
   -6.0632    1.9060    0.2217 C   0  0  0  0  0  0  0  0  0  0  0  0
   -6.8034    1.4832   -1.0460 C   0  0  0  0  0  0  0  0  0  0  0  0
   -6.1952    0.2485   -1.7093 C   0  0  0  0  0  0  0  0  0  0  0  0
   -4.7128    0.1134   -1.3805 C   0  0  0  0  0  0  0  0  0  0  0  0
   -2.7915   -0.3203    1.9331 C   0  0  0  0  0  0  0  0  0  0  0  0
   -1.8779   -1.5583    2.0182 C   0  0  0  0  0  0  0  0  0  0  0  0
    2.9338   -0.0327    1.1598 C   0  0  0  0  0  0  0  0  0  0  0  0
    4.0894   -0.0932    0.3483 C   0  0  0  0  0  0  0  0  0  0  0  0
    4.7432    1.1515    0.2458 N   0  0  0  0  0  0  0  0  0  0  0  0
    5.9347    1.5832   -0.2390 C   0  0  0  0  0  0  0  0  0  0  0  0
    6.1650    2.7927   -0.1459 O   0  0  0  0  0  0  0  0  0  0  0  0
    7.9172    2.0957   -2.1152 H   0  0  0  0  0  0  0  0  0  0  0  0
    8.6434    1.9542   -0.5079 H   0  0  0  0  0  0  0  0  0  0  0  0
    8.9273    0.6926   -1.7142 H   0  0  0  0  0  0  0  0  0  0  0  0
    7.2855   -0.0293   -0.0107 H   0  0  0  0  0  0  0  0  0  0  0  0
    5.4537    0.4179   -2.4227 H   0  0  0  0  0  0  0  0  0  0  0  0
    7.0136   -0.3217   -2.7674 H   0  0  0  0  0  0  0  0  0  0  0  0
    3.8898   -3.4356   -0.3685 H   0  0  0  0  0  0  0  0  0  0  0  0
    1.9259   -3.2851    1.0818 H   0  0  0  0  0  0  0  0  0  0  0  0
   -0.3801    0.6541    0.5468 H   0  0  0  0  0  0  0  0  0  0  0  0
    0.0649   -0.6644   -0.5551 H   0  0  0  0  0  0  0  0  0  0  0  0
   -2.0357    0.3103   -1.2712 H   0  0  0  0  0  0  0  0  0  0  0  0
   -2.3088   -1.3542   -0.7273 H   0  0  0  0  0  0  0  0  0  0  0  0
   -4.6809   -1.1828    0.3285 H   0  0  0  0  0  0  0  0  0  0  0  0
   -5.0701    1.0580    1.9150 H   0  0  0  0  0  0  0  0  0  0  0  0
   -6.3296    0.0426    1.2563 H   0  0  0  0  0  0  0  0  0  0  0  0
   -6.7431    2.4714    0.8693 H   0  0  0  0  0  0  0  0  0  0  0  0
   -5.2434    2.5872   -0.0387 H   0  0  0  0  0  0  0  0  0  0  0  0
   -6.8036    2.3238   -1.7504 H   0  0  0  0  0  0  0  0  0  0  0  0
   -7.8556    1.2779   -0.8145 H   0  0  0  0  0  0  0  0  0  0  0  0
   -6.3408    0.3058   -2.7940 H   0  0  0  0  0  0  0  0  0  0  0  0
   -6.7252   -0.6502   -1.3698 H   0  0  0  0  0  0  0  0  0  0  0  0
   -4.1976    1.0223   -1.7178 H   0  0  0  0  0  0  0  0  0  0  0  0
   -4.2946   -0.7223   -1.9544 H   0  0  0  0  0  0  0  0  0  0  0  0
   -3.7062   -0.5410    2.4947 H   0  0  0  0  0  0  0  0  0  0  0  0
   -2.3061    0.5096    2.4618 H   0  0  0  0  0  0  0  0  0  0  0  0
   -1.7508   -1.8409    3.0686 H   0  0  0  0  0  0  0  0  0  0  0  0
   -2.3546   -2.4169    1.5293 H   0  0  0  0  0  0  0  0  0  0  0  0
    2.6390    0.9096    1.6217 H   0  0  0  0  0  0  0  0  0  0  0  0
    4.2652    1.9412    0.6699 H   0  0  0  0  0  0  0  0  0  0  0  0
  1  2  1  0
  2  3  1  0
  3  4  1  0
  4  5  1  0
  5  6  2  0
  6  7  1  0
  7  8  2  0
  8  9  1  0
  9 10  2  0
  9 11  2  0
  9 12  1  0
 12 13  1  0
 13 14  1  0
 14 15  1  0
 15 16  1  0
 16 17  1  0
 17 18  1  0
 18 19  1  0
 19 20  1  0
 20 21  1  0
 15 22  1  0
 22 23  1  0
  8 24  1  0
 24 25  2  0
 25 26  1  0
 26 27  1  0
 27 28  2  0
 27  2  1  0
 25  5  1  0
 23 12  1  0
 21 16  1  0
  1 29  1  0
  1 30  1  0
  1 31  1  0
  2 32  1  0
  3 33  1  0
  3 34  1  0
  6 35  1  0
  7 36  1  0
 13 37  1  0
 13 38  1  0
 14 39  1  0
 14 40  1  0
 16 41  1  0
 17 42  1  0
 17 43  1  0
 18 44  1  0
 18 45  1  0
 19 46  1  0
 19 47  1  0
 20 48  1  0
 20 49  1  0
 21 50  1  0
 21 51  1  0
 22 52  1  0
 22 53  1  0
 23 54  1  0
 23 55  1  0
 24 56  1  0
 26 57  1  0
M  END
$$$$
