
     RDKit          3D

 42 45  0  0  0  0  0  0  0  0999 V2000
    0.9339    1.7786    3.1425 O   0  0  0  0  0  0  0  0  0  0  0  0
    1.0662    1.3553    1.7644 S   0  0  0  0  0  6  0  0  0  0  0  0
    1.2258    2.3108    0.6917 O   0  0  0  0  0  0  0  0  0  0  0  0
    2.5563    0.3540    1.7417 C   0  0  0  0  0  0  0  0  0  0  0  0
    3.2693   -0.2350    2.7768 C   0  0  0  0  0  0  0  0  0  0  0  0
    4.3624   -0.9244    2.2043 C   0  0  0  0  0  0  0  0  0  0  0  0
    4.2875   -0.7357    0.8380 C   0  0  0  0  0  0  0  0  0  0  0  0
    5.1684   -1.2250   -0.1765 C   0  0  0  0  0  0  0  0  0  0  0  0
    5.1418   -0.9840   -1.5344 C   0  0  0  0  0  0  0  0  0  0  0  0
    6.2314   -1.7055   -2.0482 C   0  0  0  0  0  0  0  0  0  0  0  0
    6.8939   -2.3563   -1.0916 N   0  0  0  0  0  0  0  0  0  0  0  0
    6.2286   -2.0519    0.0845 O   0  0  0  0  0  0  0  0  0  0  0  0
    3.1889    0.0305    0.5591 O   0  0  0  0  0  0  0  0  0  0  0  0
   -0.2370    0.3262    1.4004 N   0  0  0  0  0  0  0  0  0  0  0  0
   -0.2571   -0.2610    0.0186 C   0  0  0  0  0  0  0  0  0  0  0  0
   -0.8742    0.6850   -1.0353 C   0  0  0  0  0  0  0  0  0  0  0  0
   -2.1931    1.1999   -0.6107 N   0  0  0  0  0  0  0  0  0  0  0  0
   -3.3679    0.5131   -0.9267 C   0  0  0  0  0  0  0  0  0  0  0  0
   -4.6166    1.1406   -0.7660 C   0  0  0  0  0  0  0  0  0  0  0  0
   -5.8207    0.4969   -1.0747 C   0  0  0  0  0  0  0  0  0  0  0  0
   -5.8069   -0.7999   -1.5700 C   0  0  0  0  0  0  0  0  0  0  0  0
   -4.5897   -1.4402   -1.7659 C   0  0  0  0  0  0  0  0  0  0  0  0
   -3.3893   -0.7864   -1.4557 C   0  0  0  0  0  0  0  0  0  0  0  0
   -2.1331    1.8496    0.7219 C   0  0  0  0  0  0  0  0  0  0  0  0
   -1.5883    0.8644    1.7746 C   0  0  0  0  0  0  0  0  0  0  0  0
    3.0117   -0.1577    3.8251 H   0  0  0  0  0  0  0  0  0  0  0  0
    5.1250   -1.4897    2.7241 H   0  0  0  0  0  0  0  0  0  0  0  0
    4.4347   -0.3670   -2.0681 H   0  0  0  0  0  0  0  0  0  0  0  0
    6.5736   -1.7872   -3.0704 H   0  0  0  0  0  0  0  0  0  0  0  0
   -0.8345   -1.1911    0.0771 H   0  0  0  0  0  0  0  0  0  0  0  0
    0.7511   -0.5540   -0.2883 H   0  0  0  0  0  0  0  0  0  0  0  0
   -0.9245    0.1929   -2.0135 H   0  0  0  0  0  0  0  0  0  0  0  0
   -0.2152    1.5464   -1.1888 H   0  0  0  0  0  0  0  0  0  0  0  0
   -4.6688    2.1726   -0.4278 H   0  0  0  0  0  0  0  0  0  0  0  0
   -6.7635    1.0198   -0.9392 H   0  0  0  0  0  0  0  0  0  0  0  0
   -6.7378   -1.3033   -1.8151 H   0  0  0  0  0  0  0  0  0  0  0  0
   -4.5667   -2.4508   -2.1656 H   0  0  0  0  0  0  0  0  0  0  0  0
   -2.4734   -1.3393   -1.6324 H   0  0  0  0  0  0  0  0  0  0  0  0
   -3.1016    2.2340    1.0563 H   0  0  0  0  0  0  0  0  0  0  0  0
   -1.4732    2.7223    0.6494 H   0  0  0  0  0  0  0  0  0  0  0  0
   -2.2677    0.0091    1.8791 H   0  0  0  0  0  0  0  0  0  0  0  0
   -1.5494    1.3436    2.7582 H   0  0  0  0  0  0  0  0  0  0  0  0
  1  2  2  0
  2  3  2  0
  2  4  1  0
  4  5  2  0
  5  6  1  0
  6  7  2  0
  7  8  1  0
  8  9  2  0
  9 10  1  0
 10 11  2  0
 11 12  1  0
  7 13  1  0
  2 14  1  0
 14 15  1  0
 15 16  1  0
 16 17  1  0
 17 18  1  0
 18 19  2  0
 19 20  1  0
 20 21  2  0
 21 22  1  0
 22 23  2  0
 17 24  1  0
 24 25  1  0
 13  4  1  0
 25 14  1  0
 12  8  1  0
 23 18  1  0
  5 26  1  0
  6 27  1  0
  9 28  1  0
 10 29  1  0
 15 30  1  0
 15 31  1  0
 16 32  1  0
 16 33  1  0
 19 34  1  0
 20 35  1  0
 21 36  1  0
 22 37  1  0
 23 38  1  0
 24 39  1  0
 24 40  1  0
 25 41  1  0
 25 42  1  0
M  END
$$$$
