
     RDKit          3D

 48 51  0  0  0  0  0  0  0  0999 V2000
   -8.1879    0.0575   -0.0170 C   0  0  0  0  0  0  0  0  0  0  0  0
   -6.9224    0.3893   -0.5713 O   0  0  0  0  0  0  0  0  0  0  0  0
   -5.8212   -0.2591   -0.0719 C   0  0  0  0  0  0  0  0  0  0  0  0
   -5.8789   -1.3386    0.8140 C   0  0  0  0  0  0  0  0  0  0  0  0
   -4.7052   -1.9152    1.2981 C   0  0  0  0  0  0  0  0  0  0  0  0
   -3.4648   -1.4175    0.8998 C   0  0  0  0  0  0  0  0  0  0  0  0
   -3.3707   -0.3443   -0.0031 C   0  0  0  0  0  0  0  0  0  0  0  0
   -2.0393    0.1275   -0.3792 C   0  0  0  0  0  0  0  0  0  0  0  0
   -1.7318    0.7249   -1.5413 N   0  0  0  0  0  0  0  0  0  0  0  0
   -0.3640    0.9555   -1.4417 O   0  0  0  0  0  0  0  0  0  0  0  0
    0.0415    0.4502   -0.2368 C   0  0  0  0  0  0  0  0  0  0  0  0
    1.3456    0.5479    0.1001 N   0  0  0  0  0  0  0  0  0  0  0  0
    2.3398    1.0145   -0.8665 C   0  0  0  0  0  0  0  0  0  0  0  0
    3.6565    1.4406   -0.1759 C   0  0  0  0  0  0  0  0  0  0  0  0
    4.1863    0.4093    0.7368 N   0  0  0  0  0  0  0  0  0  0  0  0
    5.5334    0.0703    0.6321 C   0  0  0  0  0  0  0  0  0  0  0  0
    6.5100    1.0591    0.4919 C   0  0  0  0  0  0  0  0  0  0  0  0
    7.8574    0.7089    0.4049 C   0  0  0  0  0  0  0  0  0  0  0  0
    8.2132   -0.6279    0.4690 C   0  0  0  0  0  0  0  0  0  0  0  0
    7.2000   -1.5529    0.6259 C   0  0  0  0  0  0  0  0  0  0  0  0
    5.8893   -1.2313    0.7124 N   0  0  0  0  0  0  0  0  0  0  0  0
    3.2756   -0.7011    1.0666 C   0  0  0  0  0  0  0  0  0  0  0  0
    1.8330   -0.1915    1.2707 C   0  0  0  0  0  0  0  0  0  0  0  0
   -0.9464   -0.0814    0.4398 N   0  0  0  0  0  0  0  0  0  0  0  0
   -4.5626    0.2194   -0.4971 C   0  0  0  0  0  0  0  0  0  0  0  0
   -4.5037    1.3208   -1.3219 O   0  0  0  0  0  0  0  0  0  0  0  0
   -4.7939    0.9590   -2.6728 C   0  0  0  0  0  0  0  0  0  0  0  0
   -8.4701   -0.9692   -0.2713 H   0  0  0  0  0  0  0  0  0  0  0  0
   -8.9324    0.7255   -0.4608 H   0  0  0  0  0  0  0  0  0  0  0  0
   -8.2026    0.2164    1.0665 H   0  0  0  0  0  0  0  0  0  0  0  0
   -6.8231   -1.7510    1.1537 H   0  0  0  0  0  0  0  0  0  0  0  0
   -4.7553   -2.7494    1.9940 H   0  0  0  0  0  0  0  0  0  0  0  0
   -2.5614   -1.8765    1.2995 H   0  0  0  0  0  0  0  0  0  0  0  0
    1.9628    1.8757   -1.4315 H   0  0  0  0  0  0  0  0  0  0  0  0
    2.5474    0.2117   -1.5855 H   0  0  0  0  0  0  0  0  0  0  0  0
    4.3710    1.7022   -0.9660 H   0  0  0  0  0  0  0  0  0  0  0  0
    3.4744    2.3468    0.4145 H   0  0  0  0  0  0  0  0  0  0  0  0
    6.2347    2.1080    0.4757 H   0  0  0  0  0  0  0  0  0  0  0  0
    8.6166    1.4779    0.2990 H   0  0  0  0  0  0  0  0  0  0  0  0
    9.2489   -0.9403    0.4085 H   0  0  0  0  0  0  0  0  0  0  0  0
    7.4174   -2.6149    0.6913 H   0  0  0  0  0  0  0  0  0  0  0  0
    3.5965   -1.1945    1.9926 H   0  0  0  0  0  0  0  0  0  0  0  0
    3.2808   -1.4470    0.2603 H   0  0  0  0  0  0  0  0  0  0  0  0
    1.1963   -1.0564    1.4946 H   0  0  0  0  0  0  0  0  0  0  0  0
    1.8001    0.4768    2.1398 H   0  0  0  0  0  0  0  0  0  0  0  0
   -5.8741    0.9093   -2.8383 H   0  0  0  0  0  0  0  0  0  0  0  0
   -4.3239    0.0111   -2.9601 H   0  0  0  0  0  0  0  0  0  0  0  0
   -4.3925    1.7440   -3.3210 H   0  0  0  0  0  0  0  0  0  0  0  0
  1  2  1  0
  2  3  1  0
  3  4  2  0
  4  5  1  0
  5  6  2  0
  6  7  1  0
  7  8  1  0
  8  9  2  0
  9 10  1  0
 10 11  1  0
 11 12  1  0
 12 13  1  0
 13 14  1  0
 14 15  1  0
 15 16  1  0
 16 17  2  0
 17 18  1  0
 18 19  2  0
 19 20  1  0
 20 21  2  0
 15 22  1  0
 22 23  1  0
 11 24  2  0
  7 25  2  0
 25 26  1  0
 26 27  1  0
 25  3  1  0
 24  8  1  0
 23 12  1  0
 21 16  1  0
  1 28  1  0
  1 29  1  0
  1 30  1  0
  4 31  1  0
  5 32  1  0
  6 33  1  0
 13 34  1  0
 13 35  1  0
 14 36  1  0
 14 37  1  0
 17 38  1  0
 18 39  1  0
 19 40  1  0
 20 41  1  0
 22 42  1  0
 22 43  1  0
 23 44  1  0
 23 45  1  0
 27 46  1  0
 27 47  1  0
 27 48  1  0
M  END
$$$$
