
     RDKit          3D

 48 50  0  0  0  0  0  0  0  0999 V2000
    7.4801   -1.3573    1.2691 C   0  0  0  0  0  0  0  0  0  0  0  0
    6.9704   -0.7416    0.0946 O   0  0  0  0  0  0  0  0  0  0  0  0
    5.6598   -0.3313    0.1072 C   0  0  0  0  0  0  0  0  0  0  0  0
    4.7897   -0.5013    1.1918 C   0  0  0  0  0  0  0  0  0  0  0  0
    3.4678   -0.0556    1.1243 C   0  0  0  0  0  0  0  0  0  0  0  0
    2.6331   -0.2511    2.2344 N   0  0  0  0  0  0  0  0  0  0  0  0
    1.4222    0.1872    2.1581 C   0  0  0  0  0  0  0  0  0  0  0  0
    0.8820    0.8259    1.0677 N   0  0  0  0  0  0  0  0  0  0  0  0
   -0.5154    1.2495    1.0913 C   0  0  0  0  0  0  0  0  0  0  0  0
   -1.4243    0.2302    0.4102 C   0  0  0  0  0  0  0  0  0  0  0  0
   -2.8741    0.6415    0.5213 C   0  0  0  0  0  0  0  0  0  0  0  0
   -3.2610    1.5499    1.2474 O   0  0  0  0  0  0  0  0  0  0  0  0
   -3.7150   -0.1291   -0.2534 N   0  0  0  0  0  0  0  0  0  0  0  0
   -5.1509    0.0404   -0.2035 C   0  0  0  0  0  0  0  0  0  0  0  0
   -5.7885   -0.6573    0.9973 C   0  0  0  0  0  0  0  0  0  0  0  0
   -7.2306   -0.9441    0.5789 C   0  0  0  0  0  0  0  0  0  0  0  0
   -7.3054   -0.6778   -0.9236 C   0  0  0  0  0  0  0  0  0  0  0  0
   -5.8596   -0.6023   -1.3890 C   0  0  0  0  0  0  0  0  0  0  0  0
    1.6228    1.0197   -0.0898 C   0  0  0  0  0  0  0  0  0  0  0  0
    1.1722    1.5170   -1.1182 O   0  0  0  0  0  0  0  0  0  0  0  0
    3.0252    0.5632   -0.0426 C   0  0  0  0  0  0  0  0  0  0  0  0
    3.8758    0.7426   -1.1392 C   0  0  0  0  0  0  0  0  0  0  0  0
    5.1976    0.2969   -1.0693 C   0  0  0  0  0  0  0  0  0  0  0  0
    6.1120    0.4227   -2.0852 O   0  0  0  0  0  0  0  0  0  0  0  0
    5.6919    1.0753   -3.2755 C   0  0  0  0  0  0  0  0  0  0  0  0
    7.4443   -0.6719    2.1223 H   0  0  0  0  0  0  0  0  0  0  0  0
    8.5301   -1.6062    1.0873 H   0  0  0  0  0  0  0  0  0  0  0  0
    6.9506   -2.2906    1.4870 H   0  0  0  0  0  0  0  0  0  0  0  0
    5.1091   -0.9804    2.1111 H   0  0  0  0  0  0  0  0  0  0  0  0
    0.7336    0.0595    3.0088 H   0  0  0  0  0  0  0  0  0  0  0  0
   -0.8215    1.3968    2.1341 H   0  0  0  0  0  0  0  0  0  0  0  0
   -0.5983    2.2207    0.5881 H   0  0  0  0  0  0  0  0  0  0  0  0
   -1.3104   -0.7537    0.8805 H   0  0  0  0  0  0  0  0  0  0  0  0
   -1.1612    0.1292   -0.6489 H   0  0  0  0  0  0  0  0  0  0  0  0
   -3.3421   -0.9594   -0.6967 H   0  0  0  0  0  0  0  0  0  0  0  0
   -5.3800    1.1135   -0.1675 H   0  0  0  0  0  0  0  0  0  0  0  0
   -5.2758   -1.6019    1.2192 H   0  0  0  0  0  0  0  0  0  0  0  0
   -5.7391   -0.0435    1.9026 H   0  0  0  0  0  0  0  0  0  0  0  0
   -7.4927   -1.9828    0.8078 H   0  0  0  0  0  0  0  0  0  0  0  0
   -7.9361   -0.3027    1.1180 H   0  0  0  0  0  0  0  0  0  0  0  0
   -7.8056    0.2816   -1.1027 H   0  0  0  0  0  0  0  0  0  0  0  0
   -7.8705   -1.4506   -1.4531 H   0  0  0  0  0  0  0  0  0  0  0  0
   -5.4720   -1.6105   -1.5826 H   0  0  0  0  0  0  0  0  0  0  0  0
   -5.7482   -0.0193   -2.3085 H   0  0  0  0  0  0  0  0  0  0  0  0
    3.4816    1.2289   -2.0255 H   0  0  0  0  0  0  0  0  0  0  0  0
    4.8844    0.5211   -3.7652 H   0  0  0  0  0  0  0  0  0  0  0  0
    5.3984    2.1111   -3.0761 H   0  0  0  0  0  0  0  0  0  0  0  0
    6.5432    1.0978   -3.9627 H   0  0  0  0  0  0  0  0  0  0  0  0
  1  2  1  0
  2  3  1  0
  3  4  2  0
  4  5  1  0
  5  6  1  0
  6  7  2  0
  7  8  1  0
  8  9  1  0
  9 10  1  0
 10 11  1  0
 11 12  2  0
 11 13  1  0
 13 14  1  0
 14 15  1  0
 15 16  1  0
 16 17  1  0
 17 18  1  0
  8 19  1  0
 19 20  2  0
 19 21  1  0
 21 22  1  0
 22 23  2  0
 23 24  1  0
 24 25  1  0
 23  3  1  0
 21  5  2  0
 18 14  1  0
  1 26  1  0
  1 27  1  0
  1 28  1  0
  4 29  1  0
  7 30  1  0
  9 31  1  0
  9 32  1  0
 10 33  1  0
 10 34  1  0
 13 35  1  0
 14 36  1  0
 15 37  1  0
 15 38  1  0
 16 39  1  0
 16 40  1  0
 17 41  1  0
 17 42  1  0
 18 43  1  0
 18 44  1  0
 22 45  1  0
 25 46  1  0
 25 47  1  0
 25 48  1  0
M  END
$$$$
