
     RDKit          3D

 52 55  0  0  0  0  0  0  0  0999 V2000
   -0.1391    0.8440    1.2480 O   0  0  0  0  0  0  0  0  0  0  0  0
    0.6371   -0.1089    1.2548 C   0  0  0  0  0  0  0  0  0  0  0  0
    0.1582   -1.5580    1.3001 C   0  0  0  0  0  0  0  0  0  0  0  0
    0.2131   -2.1525   -0.0325 N   0  0  0  0  0  0  0  0  0  0  0  0
    1.3974   -2.7660   -0.4174 C   0  0  0  0  0  0  0  0  0  0  0  0
    2.4159   -2.7531    0.2756 O   0  0  0  0  0  0  0  0  0  0  0  0
    1.3263   -3.5188   -1.7378 C   0  0  0  0  0  0  0  0  0  0  0  0
    0.5344   -2.9605   -2.7664 O   0  0  0  0  0  0  0  0  0  0  0  0
   -0.6250   -2.3903   -2.3140 C   0  0  0  0  0  0  0  0  0  0  0  0
   -1.6047   -2.1957   -3.2921 C   0  0  0  0  0  0  0  0  0  0  0  0
   -2.8100   -1.5851   -2.9601 C   0  0  0  0  0  0  0  0  0  0  0  0
   -3.0189   -1.1456   -1.6523 C   0  0  0  0  0  0  0  0  0  0  0  0
   -4.3138   -0.5069   -1.3240 C   0  0  0  0  0  0  0  0  0  0  0  0
   -5.3444   -1.0974   -1.6381 O   0  0  0  0  0  0  0  0  0  0  0  0
   -4.3065    0.7238   -0.6969 N   0  0  0  0  0  0  0  0  0  0  0  0
   -5.5574    1.3900   -0.3762 C   0  0  0  0  0  0  0  0  0  0  0  0
   -5.1337    2.6576    0.3510 C   0  0  0  0  0  0  0  0  0  0  0  0
   -3.8077    2.9949   -0.3184 C   0  0  0  0  0  0  0  0  0  0  0  0
   -3.1729    1.6242   -0.5170 C   0  0  0  0  0  0  0  0  0  0  0  0
   -2.0439   -1.3521   -0.6656 C   0  0  0  0  0  0  0  0  0  0  0  0
   -0.8287   -1.9726   -0.9864 C   0  0  0  0  0  0  0  0  0  0  0  0
    2.0067    0.0279    1.1817 N   0  0  0  0  0  0  0  0  0  0  0  0
    2.6095    1.3219    0.9798 C   0  0  0  0  0  0  0  0  0  0  0  0
    4.1103    1.2337    1.0495 C   0  0  0  0  0  0  0  0  0  0  0  0
    4.7582    1.1601    2.2919 C   0  0  0  0  0  0  0  0  0  0  0  0
    6.1494    1.0565    2.3603 C   0  0  0  0  0  0  0  0  0  0  0  0
    6.8996    1.0228    1.1866 C   0  0  0  0  0  0  0  0  0  0  0  0
    8.6132    0.8925    1.2698 Cl  0  0  0  0  0  0  0  0  0  0  0  0
    6.2701    1.0860   -0.0550 C   0  0  0  0  0  0  0  0  0  0  0  0
    4.8785    1.1875   -0.1239 C   0  0  0  0  0  0  0  0  0  0  0  0
   -0.8439   -1.6165    1.7338 H   0  0  0  0  0  0  0  0  0  0  0  0
    0.8096   -2.1157    1.9844 H   0  0  0  0  0  0  0  0  0  0  0  0
    2.3478   -3.5970   -2.1281 H   0  0  0  0  0  0  0  0  0  0  0  0
    0.9756   -4.5368   -1.5288 H   0  0  0  0  0  0  0  0  0  0  0  0
   -1.4262   -2.5231   -4.3133 H   0  0  0  0  0  0  0  0  0  0  0  0
   -3.5807   -1.4467   -3.7157 H   0  0  0  0  0  0  0  0  0  0  0  0
   -6.2001    0.7412    0.2268 H   0  0  0  0  0  0  0  0  0  0  0  0
   -6.0688    1.6247   -1.3175 H   0  0  0  0  0  0  0  0  0  0  0  0
   -5.8727    3.4589    0.2681 H   0  0  0  0  0  0  0  0  0  0  0  0
   -4.9690    2.4465    1.4144 H   0  0  0  0  0  0  0  0  0  0  0  0
   -3.9940    3.4672   -1.2903 H   0  0  0  0  0  0  0  0  0  0  0  0
   -3.1827    3.6668    0.2761 H   0  0  0  0  0  0  0  0  0  0  0  0
   -2.6399    1.3179    0.3873 H   0  0  0  0  0  0  0  0  0  0  0  0
   -2.4946    1.5942   -1.3739 H   0  0  0  0  0  0  0  0  0  0  0  0
   -2.2706   -1.0207    0.3421 H   0  0  0  0  0  0  0  0  0  0  0  0
    2.5578   -0.8021    0.9659 H   0  0  0  0  0  0  0  0  0  0  0  0
    2.2835    1.7041    0.0048 H   0  0  0  0  0  0  0  0  0  0  0  0
    2.2297    2.0182    1.7371 H   0  0  0  0  0  0  0  0  0  0  0  0
    4.1777    1.1765    3.2132 H   0  0  0  0  0  0  0  0  0  0  0  0
    6.6389    1.0008    3.3295 H   0  0  0  0  0  0  0  0  0  0  0  0
    6.8540    1.0504   -0.9709 H   0  0  0  0  0  0  0  0  0  0  0  0
    4.3976    1.2311   -1.0996 H   0  0  0  0  0  0  0  0  0  0  0  0
  1  2  2  0
  2  3  1  0
  3  4  1  0
  4  5  1  0
  5  6  2  0
  5  7  1  0
  7  8  1  0
  8  9  1  0
  9 10  2  0
 10 11  1  0
 11 12  2  0
 12 13  1  0
 13 14  2  0
 13 15  1  0
 15 16  1  0
 16 17  1  0
 17 18  1  0
 18 19  1  0
 12 20  1  0
 20 21  2  0
  2 22  1  0
 22 23  1  0
 23 24  1  0
 24 25  2  0
 25 26  1  0
 26 27  2  0
 27 28  1  0
 27 29  1  0
 29 30  2  0
 21  4  1  0
 30 24  1  0
 21  9  1  0
 19 15  1  0
  3 31  1  0
  3 32  1  0
  7 33  1  0
  7 34  1  0
 10 35  1  0
 11 36  1  0
 16 37  1  0
 16 38  1  0
 17 39  1  0
 17 40  1  0
 18 41  1  0
 18 42  1  0
 19 43  1  0
 19 44  1  0
 20 45  1  0
 22 46  1  0
 23 47  1  0
 23 48  1  0
 25 49  1  0
 26 50  1  0
 29 51  1  0
 30 52  1  0
M  END
$$$$
