
     RDKit          3D

 54 56  0  0  0  0  0  0  0  0999 V2000
    3.2137    4.4810   -0.9460 C   0  0  0  0  0  0  0  0  0  0  0  0
    2.7237    3.1442   -0.4783 C   0  0  0  0  0  0  0  0  0  0  0  0
    1.6298    3.0510    0.3607 C   0  0  0  0  0  0  0  0  0  0  0  0
    1.1862    1.7885    0.7889 C   0  0  0  0  0  0  0  0  0  0  0  0
   -0.1021    1.8298    1.5404 C   0  0  0  0  0  0  0  0  0  0  0  0
   -0.8991    2.7261    1.2667 O   0  0  0  0  0  0  0  0  0  0  0  0
   -0.3430    0.9027    2.5192 N   0  0  0  0  0  0  0  0  0  0  0  0
   -1.6928    0.6274    2.9844 C   0  0  0  0  0  0  0  0  0  0  0  0
   -2.2899   -0.6328    2.3102 C   0  0  0  0  0  0  0  0  0  0  0  0
   -2.2439   -0.6488    0.8260 N   0  0  0  0  0  0  0  0  0  0  0  0
   -2.4776   -2.0116    0.3253 C   0  0  0  0  0  0  0  0  0  0  0  0
   -1.9084   -2.2002   -1.0809 C   0  0  0  0  0  0  0  0  0  0  0  0
   -2.8440   -1.8344   -2.2270 C   0  0  0  0  0  0  0  0  0  0  0  0
   -3.7525   -0.6303   -2.0179 C   0  0  0  0  0  0  0  0  0  0  0  0
   -3.1213    0.5207   -1.2456 C   0  0  0  0  0  0  0  0  0  0  0  0
   -3.1884    0.3352    0.2742 C   0  0  0  0  0  0  0  0  0  0  0  0
    1.8822    0.6496    0.3573 C   0  0  0  0  0  0  0  0  0  0  0  0
    1.6366   -0.7340    0.7863 C   0  0  0  0  0  0  0  0  0  0  0  0
    1.2129   -0.9665    1.9153 O   0  0  0  0  0  0  0  0  0  0  0  0
    2.0275   -1.7341   -0.0846 N   0  0  0  0  0  0  0  0  0  0  0  0
    1.6240   -3.0917    0.2290 C   0  0  0  0  0  0  0  0  0  0  0  0
    3.1037   -1.5835   -0.9442 C   0  0  0  0  0  0  0  0  0  0  0  0
    3.6321   -2.5517   -1.4940 O   0  0  0  0  0  0  0  0  0  0  0  0
    3.5672   -0.2949   -1.1179 N   0  0  0  0  0  0  0  0  0  0  0  0
    4.6752   -0.0422   -2.0273 C   0  0  0  0  0  0  0  0  0  0  0  0
    2.9254    0.8242   -0.5437 C   0  0  0  0  0  0  0  0  0  0  0  0
    3.3593    2.0492   -0.9368 N   0  0  0  0  0  0  0  0  0  0  0  0
    3.4589    5.1162   -0.0891 H   0  0  0  0  0  0  0  0  0  0  0  0
    2.4466    4.9734   -1.5515 H   0  0  0  0  0  0  0  0  0  0  0  0
    4.1156    4.3726   -1.5573 H   0  0  0  0  0  0  0  0  0  0  0  0
    1.1062    3.9543    0.6685 H   0  0  0  0  0  0  0  0  0  0  0  0
    0.3147    0.1330    2.6276 H   0  0  0  0  0  0  0  0  0  0  0  0
   -1.6228    0.4535    4.0635 H   0  0  0  0  0  0  0  0  0  0  0  0
   -2.3361    1.4989    2.8304 H   0  0  0  0  0  0  0  0  0  0  0  0
   -1.6955   -1.4769    2.6857 H   0  0  0  0  0  0  0  0  0  0  0  0
   -3.3149   -0.7897    2.6694 H   0  0  0  0  0  0  0  0  0  0  0  0
   -1.9313   -2.7219    0.9596 H   0  0  0  0  0  0  0  0  0  0  0  0
   -3.5343   -2.3001    0.3830 H   0  0  0  0  0  0  0  0  0  0  0  0
   -1.6207   -3.2521   -1.2076 H   0  0  0  0  0  0  0  0  0  0  0  0
   -0.9733   -1.6331   -1.1807 H   0  0  0  0  0  0  0  0  0  0  0  0
   -2.2319   -1.6695   -3.1230 H   0  0  0  0  0  0  0  0  0  0  0  0
   -3.4782   -2.6995   -2.4599 H   0  0  0  0  0  0  0  0  0  0  0  0
   -4.6759   -0.9494   -1.5189 H   0  0  0  0  0  0  0  0  0  0  0  0
   -4.0604   -0.2678   -3.0067 H   0  0  0  0  0  0  0  0  0  0  0  0
   -3.6845    1.4315   -1.4870 H   0  0  0  0  0  0  0  0  0  0  0  0
   -2.0909    0.7023   -1.5743 H   0  0  0  0  0  0  0  0  0  0  0  0
   -2.9809    1.3197    0.7039 H   0  0  0  0  0  0  0  0  0  0  0  0
   -4.2167    0.0879    0.5705 H   0  0  0  0  0  0  0  0  0  0  0  0
    0.6532   -3.1028    0.7329 H   0  0  0  0  0  0  0  0  0  0  0  0
    2.3746   -3.5395    0.8882 H   0  0  0  0  0  0  0  0  0  0  0  0
    1.5553   -3.6862   -0.6871 H   0  0  0  0  0  0  0  0  0  0  0  0
    5.4264    0.5817   -1.5321 H   0  0  0  0  0  0  0  0  0  0  0  0
    5.1625   -0.9706   -2.3380 H   0  0  0  0  0  0  0  0  0  0  0  0
    4.2976    0.4615   -2.9229 H   0  0  0  0  0  0  0  0  0  0  0  0
  1  2  1  0
  2  3  2  0
  3  4  1  0
  4  5  1  0
  5  6  2  0
  5  7  1  0
  7  8  1  0
  8  9  1  0
  9 10  1  0
 10 11  1  0
 11 12  1  0
 12 13  1  0
 13 14  1  0
 14 15  1  0
 15 16  1  0
  4 17  2  0
 17 18  1  0
 18 19  2  0
 18 20  1  0
 20 21  1  0
 20 22  1  0
 22 23  2  0
 22 24  1  0
 24 25  1  0
 24 26  1  0
 26 27  2  0
 27  2  1  0
 16 10  1  0
 26 17  1  0
  1 28  1  0
  1 29  1  0
  1 30  1  0
  3 31  1  0
  7 32  1  0
  8 33  1  0
  8 34  1  0
  9 35  1  0
  9 36  1  0
 11 37  1  0
 11 38  1  0
 12 39  1  0
 12 40  1  0
 13 41  1  0
 13 42  1  0
 14 43  1  0
 14 44  1  0
 15 45  1  0
 15 46  1  0
 16 47  1  0
 16 48  1  0
 21 49  1  0
 21 50  1  0
 21 51  1  0
 25 52  1  0
 25 53  1  0
 25 54  1  0
M  END
$$$$
