
     RDKit          3D

 51 54  0  0  0  0  0  0  0  0999 V2000
   -0.8080   -0.0444    3.1499 O   0  0  0  0  0  0  0  0  0  0  0  0
   -0.6257   -0.4532    2.0028 C   0  0  0  0  0  0  0  0  0  0  0  0
   -1.7999   -0.9489    1.1841 C   0  0  0  0  0  0  0  0  0  0  0  0
   -2.2734    0.1309    0.2004 C   0  0  0  0  0  0  0  0  0  0  0  0
   -3.1469   -0.4019   -0.9327 C   0  0  0  0  0  0  0  0  0  0  0  0
   -4.0635   -1.4535   -0.7523 C   0  0  0  0  0  0  0  0  0  0  0  0
   -4.8521   -1.9094   -1.8139 C   0  0  0  0  0  0  0  0  0  0  0  0
   -4.7412   -1.3180   -3.0696 C   0  0  0  0  0  0  0  0  0  0  0  0
   -3.8479   -0.2715   -3.2529 C   0  0  0  0  0  0  0  0  0  0  0  0
   -3.7427    0.3024   -4.4586 F   0  0  0  0  0  0  0  0  0  0  0  0
   -3.0583    0.1909   -2.2044 C   0  0  0  0  0  0  0  0  0  0  0  0
   -2.9435    1.2564    0.8671 N   0  0  0  0  0  0  0  0  0  0  0  0
   -4.1030    1.1989    1.6001 C   0  0  0  0  0  0  0  0  0  0  0  0
   -4.3897    2.4693    2.0495 C   0  0  0  0  0  0  0  0  0  0  0  0
   -3.3707    3.3260    1.5743 C   0  0  0  0  0  0  0  0  0  0  0  0
   -2.4905    2.5544    0.8483 C   0  0  0  0  0  0  0  0  0  0  0  0
    0.6267   -0.4503    1.4128 N   0  0  0  0  0  0  0  0  0  0  0  0
    1.7526    0.1353    2.1452 C   0  0  0  0  0  0  0  0  0  0  0  0
    2.7294    0.8914    1.2230 C   0  0  0  0  0  0  0  0  0  0  0  0
    3.0743    0.1282    0.0060 N   0  0  0  0  0  0  0  0  0  0  0  0
    4.3897    0.2443   -0.4516 C   0  0  0  0  0  0  0  0  0  0  0  0
    5.0119    1.4934   -0.5188 C   0  0  0  0  0  0  0  0  0  0  0  0
    6.3198    1.6017   -0.9910 C   0  0  0  0  0  0  0  0  0  0  0  0
    6.9872    0.4589   -1.3990 C   0  0  0  0  0  0  0  0  0  0  0  0
    6.3086   -0.7413   -1.3214 C   0  0  0  0  0  0  0  0  0  0  0  0
    5.0407   -0.8654   -0.8668 N   0  0  0  0  0  0  0  0  0  0  0  0
    2.4903   -1.2152   -0.1070 C   0  0  0  0  0  0  0  0  0  0  0  0
    0.9756   -1.1597    0.1719 C   0  0  0  0  0  0  0  0  0  0  0  0
   -1.5161   -1.8681    0.6621 H   0  0  0  0  0  0  0  0  0  0  0  0
   -2.5933   -1.2407    1.8836 H   0  0  0  0  0  0  0  0  0  0  0  0
   -1.3833    0.5689   -0.2701 H   0  0  0  0  0  0  0  0  0  0  0  0
   -4.1881   -1.9257    0.2202 H   0  0  0  0  0  0  0  0  0  0  0  0
   -5.5583   -2.7213   -1.6570 H   0  0  0  0  0  0  0  0  0  0  0  0
   -5.3489   -1.6589   -3.9014 H   0  0  0  0  0  0  0  0  0  0  0  0
   -2.3826    1.0213   -2.3923 H   0  0  0  0  0  0  0  0  0  0  0  0
   -4.6335    0.2684    1.7488 H   0  0  0  0  0  0  0  0  0  0  0  0
   -5.2407    2.7464    2.6577 H   0  0  0  0  0  0  0  0  0  0  0  0
   -3.2849    4.3909    1.7461 H   0  0  0  0  0  0  0  0  0  0  0  0
   -1.5821    2.8270    0.3275 H   0  0  0  0  0  0  0  0  0  0  0  0
    2.2703   -0.6927    2.6453 H   0  0  0  0  0  0  0  0  0  0  0  0
    1.3984    0.8139    2.9285 H   0  0  0  0  0  0  0  0  0  0  0  0
    3.6183    1.1422    1.8156 H   0  0  0  0  0  0  0  0  0  0  0  0
    2.2615    1.8316    0.9067 H   0  0  0  0  0  0  0  0  0  0  0  0
    4.4796    2.3921   -0.2266 H   0  0  0  0  0  0  0  0  0  0  0  0
    6.8031    2.5725   -1.0453 H   0  0  0  0  0  0  0  0  0  0  0  0
    8.0028    0.5018   -1.7743 H   0  0  0  0  0  0  0  0  0  0  0  0
    6.7774   -1.6698   -1.6339 H   0  0  0  0  0  0  0  0  0  0  0  0
    2.6278   -1.6251   -1.1155 H   0  0  0  0  0  0  0  0  0  0  0  0
    2.9713   -1.8972    0.6066 H   0  0  0  0  0  0  0  0  0  0  0  0
    0.5796   -2.1790    0.2236 H   0  0  0  0  0  0  0  0  0  0  0  0
    0.4717   -0.6432   -0.6515 H   0  0  0  0  0  0  0  0  0  0  0  0
  1  2  2  0
  2  3  1  0
  3  4  1  0
  4  5  1  0
  5  6  2  0
  6  7  1  0
  7  8  2  0
  8  9  1  0
  9 10  1  0
  9 11  2  0
  4 12  1  0
 12 13  1  0
 13 14  2  0
 14 15  1  0
 15 16  2  0
  2 17  1  0
 17 18  1  0
 18 19  1  0
 19 20  1  0
 20 21  1  0
 21 22  2  0
 22 23  1  0
 23 24  2  0
 24 25  1  0
 25 26  2  0
 20 27  1  0
 27 28  1  0
 11  5  1  0
 16 12  1  0
 28 17  1  0
 26 21  1  0
  3 29  1  0
  3 30  1  0
  4 31  1  0
  6 32  1  0
  7 33  1  0
  8 34  1  0
 11 35  1  0
 13 36  1  0
 14 37  1  0
 15 38  1  0
 16 39  1  0
 18 40  1  0
 18 41  1  0
 19 42  1  0
 19 43  1  0
 22 44  1  0
 23 45  1  0
 24 46  1  0
 25 47  1  0
 27 48  1  0
 27 49  1  0
 28 50  1  0
 28 51  1  0
M  END
$$$$
