
     RDKit          3D

 71 73  0  0  0  0  0  0  0  0999 V2000
    3.0254   -1.3840   -3.9184 C   0  0  0  0  0  0  0  0  0  0  0  0
    3.2483   -0.2900   -3.0377 O   0  0  0  0  0  0  0  0  0  0  0  0
    2.8349   -0.4403   -1.7370 C   0  0  0  0  0  0  0  0  0  0  0  0
    1.9340   -1.4226   -1.3076 C   0  0  0  0  0  0  0  0  0  0  0  0
    1.5532   -1.4910    0.0332 C   0  0  0  0  0  0  0  0  0  0  0  0
    2.0584   -0.5584    0.9404 C   0  0  0  0  0  0  0  0  0  0  0  0
    1.5736   -0.6328    2.6510 S   0  0  0  0  0  6  0  0  0  0  0  0
    1.0361   -1.9542    2.8989 O   0  0  0  0  0  0  0  0  0  0  0  0
    2.6846   -0.1219    3.4277 O   0  0  0  0  0  0  0  0  0  0  0  0
    0.3367    0.5176    2.7559 N   0  0  0  0  0  0  0  0  0  0  0  0
   -0.7949    0.3654    1.8849 C   0  0  0  0  0  0  0  0  0  0  0  0
   -1.6573   -0.7204    2.0097 C   0  0  0  0  0  0  0  0  0  0  0  0
   -2.7013   -0.8575    1.0967 C   0  0  0  0  0  0  0  0  0  0  0  0
   -3.6137   -2.0104    1.2261 C   0  0  0  0  0  0  0  0  0  0  0  0
   -4.2913   -2.1067    2.2440 O   0  0  0  0  0  0  0  0  0  0  0  0
   -3.6503   -2.9204    0.1884 N   0  0  0  0  0  0  0  0  0  0  0  0
   -4.5044   -4.0919    0.2650 C   0  0  0  0  0  0  0  0  0  0  0  0
   -4.3458   -4.7609   -1.0915 C   0  0  0  0  0  0  0  0  0  0  0  0
   -2.9076   -4.4223   -1.4657 C   0  0  0  0  0  0  0  0  0  0  0  0
   -2.7452   -2.9984   -0.9497 C   0  0  0  0  0  0  0  0  0  0  0  0
   -2.9099    0.0972    0.0963 C   0  0  0  0  0  0  0  0  0  0  0  0
   -2.0534    1.1974   -0.0076 C   0  0  0  0  0  0  0  0  0  0  0  0
   -0.9804    1.3498    0.8803 C   0  0  0  0  0  0  0  0  0  0  0  0
   -0.0884    2.4496    0.8442 N   0  0  0  0  0  0  0  0  0  0  0  0
   -0.6108    3.5962    1.6315 C   0  0  0  0  0  0  0  0  0  0  0  0
    0.4602    4.7120    1.7009 C   0  0  0  0  0  0  0  0  0  0  0  0
    0.9448    5.1579    0.3780 N   0  0  0  0  0  0  0  0  0  0  0  0
    1.4136    3.9825   -0.3888 C   0  0  0  0  0  0  0  0  0  0  0  0
    0.3452    2.8711   -0.5099 C   0  0  0  0  0  0  0  0  0  0  0  0
    2.9724    0.4174    0.5335 C   0  0  0  0  0  0  0  0  0  0  0  0
    3.3626    0.4786   -0.8066 C   0  0  0  0  0  0  0  0  0  0  0  0
    4.2168    1.4339   -1.3006 O   0  0  0  0  0  0  0  0  0  0  0  0
    5.1777    1.9481   -0.3848 C   0  0  0  0  0  0  0  0  0  0  0  0
    0.9270    1.3305   -0.7120 O   0  0  0  0  0  0  0  0  0  0  0  0
    0.5259    0.3078   -0.1700 C   0  0  0  0  0  0  0  0  0  0  0  0
    1.4398   -0.5841    0.2949 O   0  0  0  0  0  0  0  0  0  0  0  0
   -0.9293   -0.1092    0.0655 C   0  0  0  0  0  0  0  0  0  0  0  0
   -1.2232   -0.2324    1.3912 F   0  0  0  0  0  0  0  0  0  0  0  0
   -1.8259    0.7817   -0.4430 F   0  0  0  0  0  0  0  0  0  0  0  0
   -1.2223   -1.3124   -0.5051 F   0  0  0  0  0  0  0  0  0  0  0  0
    3.5596   -1.1773   -4.8514 H   0  0  0  0  0  0  0  0  0  0  0  0
    3.4245   -2.3182   -3.5065 H   0  0  0  0  0  0  0  0  0  0  0  0
    1.9612   -1.4800   -4.1586 H   0  0  0  0  0  0  0  0  0  0  0  0
    1.5064   -2.1446   -1.9950 H   0  0  0  0  0  0  0  0  0  0  0  0
    0.8586   -2.2624    0.3590 H   0  0  0  0  0  0  0  0  0  0  0  0
    0.7442    1.4504    2.6454 H   0  0  0  0  0  0  0  0  0  0  0  0
   -1.5248   -1.4538    2.8011 H   0  0  0  0  0  0  0  0  0  0  0  0
   -5.5376   -3.8067    0.4860 H   0  0  0  0  0  0  0  0  0  0  0  0
   -4.1312   -4.7328    1.0721 H   0  0  0  0  0  0  0  0  0  0  0  0
   -4.5374   -5.8367   -1.0566 H   0  0  0  0  0  0  0  0  0  0  0  0
   -5.0340   -4.3103   -1.8170 H   0  0  0  0  0  0  0  0  0  0  0  0
   -2.7106   -4.5075   -2.5378 H   0  0  0  0  0  0  0  0  0  0  0  0
   -2.2213   -5.0930   -0.9346 H   0  0  0  0  0  0  0  0  0  0  0  0
   -1.7153   -2.7741   -0.6585 H   0  0  0  0  0  0  0  0  0  0  0  0
   -3.0787   -2.2713   -1.6972 H   0  0  0  0  0  0  0  0  0  0  0  0
   -3.7511   -0.0016   -0.5860 H   0  0  0  0  0  0  0  0  0  0  0  0
   -2.2551    1.9378   -0.7754 H   0  0  0  0  0  0  0  0  0  0  0  0
   -1.5246    3.9920    1.1695 H   0  0  0  0  0  0  0  0  0  0  0  0
   -0.8559    3.2848    2.6540 H   0  0  0  0  0  0  0  0  0  0  0  0
    0.0485    5.5757    2.2332 H   0  0  0  0  0  0  0  0  0  0  0  0
    1.3174    4.3594    2.2871 H   0  0  0  0  0  0  0  0  0  0  0  0
    0.1623    5.5748   -0.1254 H   0  0  0  0  0  0  0  0  0  0  0  0
    1.7082    4.3129   -1.3903 H   0  0  0  0  0  0  0  0  0  0  0  0
    2.3136    3.5838    0.0929 H   0  0  0  0  0  0  0  0  0  0  0  0
    0.7678    2.0208   -1.0546 H   0  0  0  0  0  0  0  0  0  0  0  0
   -0.4986    3.2623   -1.0914 H   0  0  0  0  0  0  0  0  0  0  0  0
    3.3456    1.1302    1.2623 H   0  0  0  0  0  0  0  0  0  0  0  0
    5.9343    2.4873   -0.9631 H   0  0  0  0  0  0  0  0  0  0  0  0
    5.6842    1.1452    0.1615 H   0  0  0  0  0  0  0  0  0  0  0  0
    4.7159    2.6621    0.3036 H   0  0  0  0  0  0  0  0  0  0  0  0
    2.3080   -0.1820    0.0786 H   0  0  0  0  0  0  0  0  0  0  0  0
  1  2  1  0
  2  3  1  0
  3  4  2  0
  4  5  1  0
  5  6  2  0
  6  7  1  0
  7  8  2  0
  7  9  2  0
  7 10  1  0
 10 11  1  0
 11 12  2  0
 12 13  1  0
 13 14  1  0
 14 15  2  0
 14 16  1  0
 16 17  1  0
 17 18  1  0
 18 19  1  0
 19 20  1  0
 13 21  2  0
 21 22  1  0
 22 23  2  0
 23 24  1  0
 24 25  1  0
 25 26  1  0
 26 27  1  0
 27 28  1  0
 28 29  1  0
  6 30  1  0
 30 31  2  0
 31 32  1  0
 32 33  1  0
 34 35  2  0
 35 36  1  0
 35 37  1  0
 37 38  1  0
 37 39  1  0
 37 40  1  0
 31  3  1  0
 23 11  1  0
 29 24  1  0
 20 16  1  0
  1 41  1  0
  1 42  1  0
  1 43  1  0
  4 44  1  0
  5 45  1  0
 10 46  1  0
 12 47  1  0
 17 48  1  0
 17 49  1  0
 18 50  1  0
 18 51  1  0
 19 52  1  0
 19 53  1  0
 20 54  1  0
 20 55  1  0
 21 56  1  0
 22 57  1  0
 25 58  1  0
 25 59  1  0
 26 60  1  0
 26 61  1  0
 27 62  1  0
 28 63  1  0
 28 64  1  0
 29 65  1  0
 29 66  1  0
 30 67  1  0
 33 68  1  0
 33 69  1  0
 33 70  1  0
 36 71  1  0
M  END
$$$$
