
     RDKit          3D

 43 45  0  0  0  0  0  0  0  0999 V2000
   -1.2301   -2.2070    2.7969 C   0  0  0  0  0  0  0  0  0  0  0  0
   -1.2414   -1.1865    1.7954 O   0  0  0  0  0  0  0  0  0  0  0  0
    0.0151   -0.9515    1.3145 C   0  0  0  0  0  0  0  0  0  0  0  0
    0.9096   -0.2333    2.1111 C   0  0  0  0  0  0  0  0  0  0  0  0
    2.1814    0.0917    1.6297 C   0  0  0  0  0  0  0  0  0  0  0  0
    2.5790   -0.2799    0.3377 C   0  0  0  0  0  0  0  0  0  0  0  0
    3.9082    0.0676   -0.1543 C   0  0  0  0  0  0  0  0  0  0  0  0
    5.0485    0.5939    0.4092 C   0  0  0  0  0  0  0  0  0  0  0  0
    5.9717    0.6776   -0.6574 C   0  0  0  0  0  0  0  0  0  0  0  0
    7.3661    1.1713   -0.6329 C   0  0  0  0  0  0  0  0  0  0  0  0
    5.4327    0.2396   -1.7999 N   0  0  0  0  0  0  0  0  0  0  0  0
    4.1432   -0.1446   -1.4818 O   0  0  0  0  0  0  0  0  0  0  0  0
    1.6649   -0.9856   -0.4606 C   0  0  0  0  0  0  0  0  0  0  0  0
    0.3821   -1.3074    0.0176 C   0  0  0  0  0  0  0  0  0  0  0  0
   -0.6970   -2.2378   -1.0438 S   0  0  0  0  0  6  0  0  0  0  0  0
   -1.5585   -3.0810   -0.2463 O   0  0  0  0  0  0  0  0  0  0  0  0
    0.1178   -2.8076   -2.0972 O   0  0  0  0  0  0  0  0  0  0  0  0
   -1.6266   -1.0590   -1.7938 N   0  0  0  0  0  0  0  0  0  0  0  0
   -2.5118   -0.2077   -0.9892 C   0  0  0  0  0  0  0  0  0  0  0  0
   -3.6305    0.3440   -1.8731 C   0  0  0  0  0  0  0  0  0  0  0  0
   -4.5356    1.2341   -1.1052 C   0  0  0  0  0  0  0  0  0  0  0  0
   -5.7762    1.0585   -0.5298 C   0  0  0  0  0  0  0  0  0  0  0  0
   -6.1141    2.2956    0.0696 C   0  0  0  0  0  0  0  0  0  0  0  0
   -5.0603    3.1431   -0.1790 C   0  0  0  0  0  0  0  0  0  0  0  0
   -4.0959    2.5063   -0.8916 O   0  0  0  0  0  0  0  0  0  0  0  0
   -0.8544   -1.8110    3.7459 H   0  0  0  0  0  0  0  0  0  0  0  0
   -0.6387   -3.0762    2.4869 H   0  0  0  0  0  0  0  0  0  0  0  0
   -2.2624   -2.5349    2.9512 H   0  0  0  0  0  0  0  0  0  0  0  0
    0.6151    0.0924    3.1060 H   0  0  0  0  0  0  0  0  0  0  0  0
    2.8505    0.6530    2.2782 H   0  0  0  0  0  0  0  0  0  0  0  0
    5.2016    0.8752    1.4396 H   0  0  0  0  0  0  0  0  0  0  0  0
    7.7157    1.3130    0.3946 H   0  0  0  0  0  0  0  0  0  0  0  0
    7.4405    2.1317   -1.1529 H   0  0  0  0  0  0  0  0  0  0  0  0
    8.0394    0.4599   -1.1217 H   0  0  0  0  0  0  0  0  0  0  0  0
    1.9534   -1.2933   -1.4656 H   0  0  0  0  0  0  0  0  0  0  0  0
   -1.1816   -0.6573   -2.6177 H   0  0  0  0  0  0  0  0  0  0  0  0
   -1.9273    0.6155   -0.5641 H   0  0  0  0  0  0  0  0  0  0  0  0
   -2.9550   -0.7816   -0.1690 H   0  0  0  0  0  0  0  0  0  0  0  0
   -3.2030    0.8976   -2.7184 H   0  0  0  0  0  0  0  0  0  0  0  0
   -4.2053   -0.4844   -2.3055 H   0  0  0  0  0  0  0  0  0  0  0  0
   -6.3628    0.1501   -0.5419 H   0  0  0  0  0  0  0  0  0  0  0  0
   -7.0145    2.5408    0.6148 H   0  0  0  0  0  0  0  0  0  0  0  0
   -4.8537    4.1749    0.0689 H   0  0  0  0  0  0  0  0  0  0  0  0
  1  2  1  0
  2  3  1  0
  3  4  2  0
  4  5  1  0
  5  6  2  0
  6  7  1  0
  7  8  2  0
  8  9  1  0
  9 10  1  0
  9 11  2  0
 11 12  1  0
  6 13  1  0
 13 14  2  0
 14 15  1  0
 15 16  2  0
 15 17  2  0
 15 18  1  0
 18 19  1  0
 19 20  1  0
 20 21  1  0
 21 22  2  0
 22 23  1  0
 23 24  2  0
 24 25  1  0
 14  3  1  0
 25 21  1  0
 12  7  1  0
  1 26  1  0
  1 27  1  0
  1 28  1  0
  4 29  1  0
  5 30  1  0
  8 31  1  0
 10 32  1  0
 10 33  1  0
 10 34  1  0
 13 35  1  0
 18 36  1  0
 19 37  1  0
 19 38  1  0
 20 39  1  0
 20 40  1  0
 22 41  1  0
 23 42  1  0
 24 43  1  0
M  END
$$$$
