
     RDKit          3D

 49 52  0  0  0  0  0  0  0  0999 V2000
    5.6657   -3.2399    1.5192 C   0  0  0  0  0  0  0  0  0  0  0  0
    6.2740   -2.0176    1.1241 O   0  0  0  0  0  0  0  0  0  0  0  0
    5.4447   -1.0048    0.7269 C   0  0  0  0  0  0  0  0  0  0  0  0
    4.0526   -1.0650    0.6472 C   0  0  0  0  0  0  0  0  0  0  0  0
    3.3123    0.0502    0.2239 C   0  0  0  0  0  0  0  0  0  0  0  0
    1.9072   -0.0977    0.1647 N   0  0  0  0  0  0  0  0  0  0  0  0
    0.9713    0.8763   -0.1350 C   0  0  0  0  0  0  0  0  0  0  0  0
    1.1821    2.0661   -0.3344 O   0  0  0  0  0  0  0  0  0  0  0  0
   -0.4397    0.3976   -0.1689 C   0  0  0  0  0  0  0  0  0  0  0  0
   -1.4488    1.2576    0.3004 C   0  0  0  0  0  0  0  0  0  0  0  0
   -2.7949    0.8660    0.2886 C   0  0  0  0  0  0  0  0  0  0  0  0
   -3.1233   -0.3824   -0.2100 C   0  0  0  0  0  0  0  0  0  0  0  0
   -2.1150   -1.2341   -0.6792 C   0  0  0  0  0  0  0  0  0  0  0  0
   -0.7758   -0.8612   -0.6792 C   0  0  0  0  0  0  0  0  0  0  0  0
   -2.6838   -2.5142   -1.2068 C   0  0  0  0  0  0  0  0  0  0  0  0
   -4.1445   -2.4060   -0.7690 C   0  0  0  0  0  0  0  0  0  0  0  0
   -4.3682   -1.0233   -0.3301 N   0  0  0  0  0  0  0  0  0  0  0  0
   -5.6581   -0.6080   -0.0512 C   0  0  0  0  0  0  0  0  0  0  0  0
   -6.6135   -1.3812   -0.0806 O   0  0  0  0  0  0  0  0  0  0  0  0
   -5.9161    0.8189    0.2756 C   0  0  0  0  0  0  0  0  0  0  0  0
   -5.8394    1.8851   -0.7963 C   0  0  0  0  0  0  0  0  0  0  0  0
   -7.1737    1.4824   -0.2528 C   0  0  0  0  0  0  0  0  0  0  0  0
    3.9838    1.2260   -0.1256 C   0  0  0  0  0  0  0  0  0  0  0  0
    5.3766    1.2956   -0.0479 C   0  0  0  0  0  0  0  0  0  0  0  0
    6.1459    2.3842   -0.3599 O   0  0  0  0  0  0  0  0  0  0  0  0
    5.4587    3.5638   -0.7616 C   0  0  0  0  0  0  0  0  0  0  0  0
    6.0961    0.1778    0.3771 C   0  0  0  0  0  0  0  0  0  0  0  0
    6.4618   -3.9296    1.8157 H   0  0  0  0  0  0  0  0  0  0  0  0
    5.0118   -3.0937    2.3853 H   0  0  0  0  0  0  0  0  0  0  0  0
    5.1223   -3.6970    0.6858 H   0  0  0  0  0  0  0  0  0  0  0  0
    3.5279   -1.9752    0.9138 H   0  0  0  0  0  0  0  0  0  0  0  0
    1.5507   -1.0025    0.4426 H   0  0  0  0  0  0  0  0  0  0  0  0
   -1.1830    2.2425    0.6829 H   0  0  0  0  0  0  0  0  0  0  0  0
   -3.5271    1.5569    0.6814 H   0  0  0  0  0  0  0  0  0  0  0  0
   -0.0267   -1.5250   -1.0986 H   0  0  0  0  0  0  0  0  0  0  0  0
   -2.6025   -2.5413   -2.2983 H   0  0  0  0  0  0  0  0  0  0  0  0
   -2.1995   -3.3957   -0.7771 H   0  0  0  0  0  0  0  0  0  0  0  0
   -4.3543   -3.0675    0.0807 H   0  0  0  0  0  0  0  0  0  0  0  0
   -4.8357   -2.6668   -1.5784 H   0  0  0  0  0  0  0  0  0  0  0  0
   -5.6683    1.0828    1.2984 H   0  0  0  0  0  0  0  0  0  0  0  0
   -5.5928    1.5813   -1.8079 H   0  0  0  0  0  0  0  0  0  0  0  0
   -5.4543    2.8599   -0.5209 H   0  0  0  0  0  0  0  0  0  0  0  0
   -7.6922    2.1734    0.4014 H   0  0  0  0  0  0  0  0  0  0  0  0
   -7.8319    0.9014   -0.8904 H   0  0  0  0  0  0  0  0  0  0  0  0
    3.4224    2.0863   -0.4655 H   0  0  0  0  0  0  0  0  0  0  0  0
    4.9064    3.4004   -1.6928 H   0  0  0  0  0  0  0  0  0  0  0  0
    6.2085    4.3378   -0.9518 H   0  0  0  0  0  0  0  0  0  0  0  0
    4.7994    3.9279    0.0333 H   0  0  0  0  0  0  0  0  0  0  0  0
    7.1808    0.2314    0.4364 H   0  0  0  0  0  0  0  0  0  0  0  0
  1  2  1  0
  2  3  1  0
  3  4  2  0
  4  5  1  0
  5  6  1  0
  6  7  1  0
  7  8  2  0
  7  9  1  0
  9 10  2  0
 10 11  1  0
 11 12  2  0
 12 13  1  0
 13 14  2  0
 13 15  1  0
 15 16  1  0
 16 17  1  0
 17 18  1  0
 18 19  2  0
 18 20  1  0
 20 21  1  0
 21 22  1  0
  5 23  2  0
 23 24  1  0
 24 25  1  0
 25 26  1  0
 24 27  2  0
 27  3  1  0
 14  9  1  0
 22 20  1  0
 17 12  1  0
  1 28  1  0
  1 29  1  0
  1 30  1  0
  4 31  1  0
  6 32  1  0
 10 33  1  0
 11 34  1  0
 14 35  1  0
 15 36  1  0
 15 37  1  0
 16 38  1  0
 16 39  1  0
 20 40  1  0
 21 41  1  0
 21 42  1  0
 22 43  1  0
 22 44  1  0
 23 45  1  0
 26 46  1  0
 26 47  1  0
 26 48  1  0
 27 49  1  0
M  END
$$$$
