
     RDKit          3D

 52 53  0  0  0  0  0  0  0  0999 V2000
    3.0135   -3.5794    0.9872 C   0  0  0  0  0  0  0  0  0  0  0  0
    3.3471   -2.1422    1.2516 C   0  0  0  0  0  0  0  0  0  0  0  0
    3.2859   -1.1871    0.2284 C   0  0  0  0  0  0  0  0  0  0  0  0
    3.6244    0.1445    0.4998 C   0  0  0  0  0  0  0  0  0  0  0  0
    3.5417    1.3662   -0.8007 S   0  0  0  0  0  6  0  0  0  0  0  0
    3.4564    0.6412   -2.0498 O   0  0  0  0  0  0  0  0  0  0  0  0
    4.6158    2.3036   -0.5424 O   0  0  0  0  0  0  0  0  0  0  0  0
    1.9828    2.1901   -0.4822 C   0  0  1  0  0  0  0  0  0  0  0  0
    1.9198    3.5555   -1.1505 C   0  0  0  0  0  0  0  0  0  0  0  0
    1.3421    3.2482   -2.7999 S   0  0  0  0  0  6  0  0  0  0  0  0
    0.2725    4.1804   -3.0915 O   0  0  0  0  0  0  0  0  0  0  0  0
    2.4922    3.1181   -3.6675 O   0  0  0  0  0  0  0  0  0  0  0  0
    0.6480    1.6353   -2.5027 C   0  0  0  0  0  0  0  0  0  0  0  0
    0.7759    1.3734   -0.9890 C   0  0  2  0  0  0  0  0  0  0  0  0
   -0.4357    1.7860   -0.2449 N   0  0  0  0  0  0  0  0  0  0  0  0
   -1.5770    0.8815   -0.4719 C   0  0  0  0  0  0  0  0  0  0  0  0
   -2.7645    1.3329    0.3831 C   0  0  0  0  0  0  0  0  0  0  0  0
   -3.9913    0.4561    0.1499 C   0  0  0  0  0  0  0  0  0  0  0  0
   -3.6805   -0.8832    0.5297 O   0  0  0  0  0  0  0  0  0  0  0  0
   -4.7849   -1.7846    0.4021 C   0  0  0  0  0  0  0  0  0  0  0  0
   -4.9591   -2.2206   -1.0492 C   0  0  0  0  0  0  0  0  0  0  0  0
   -4.4783   -2.9909    1.2823 C   0  0  0  0  0  0  0  0  0  0  0  0
    4.0679    0.5298    1.7695 C   0  0  0  0  0  0  0  0  0  0  0  0
    4.1425   -0.4239    2.7834 C   0  0  0  0  0  0  0  0  0  0  0  0
    3.7838   -1.7440    2.5194 C   0  0  0  0  0  0  0  0  0  0  0  0
    3.8695   -2.6452    3.5078 F   0  0  0  0  0  0  0  0  0  0  0  0
    2.4432   -4.0029    1.8204 H   0  0  0  0  0  0  0  0  0  0  0  0
    3.9318   -4.1585    0.8502 H   0  0  0  0  0  0  0  0  0  0  0  0
    2.3986   -3.6834    0.0870 H   0  0  0  0  0  0  0  0  0  0  0  0
    2.9840   -1.4875   -0.7738 H   0  0  0  0  0  0  0  0  0  0  0  0
    1.9593    2.3319    0.6054 H   0  0  0  0  0  0  0  0  0  0  0  0
    2.8711    4.0890   -1.1944 H   0  0  0  0  0  0  0  0  0  0  0  0
    1.1750    4.1910   -0.6605 H   0  0  0  0  0  0  0  0  0  0  0  0
    1.2213    0.9083   -3.0833 H   0  0  0  0  0  0  0  0  0  0  0  0
   -0.3774    1.6270   -2.8777 H   0  0  0  0  0  0  0  0  0  0  0  0
    0.9301    0.3035   -0.8119 H   0  0  0  0  0  0  0  0  0  0  0  0
   -0.2533    1.7856    0.7622 H   0  0  0  0  0  0  0  0  0  0  0  0
   -1.8765    0.8883   -1.5243 H   0  0  0  0  0  0  0  0  0  0  0  0
   -1.2946   -0.1434   -0.2047 H   0  0  0  0  0  0  0  0  0  0  0  0
   -3.0199    2.3743    0.1535 H   0  0  0  0  0  0  0  0  0  0  0  0
   -2.4845    1.2841    1.4430 H   0  0  0  0  0  0  0  0  0  0  0  0
   -4.8216    0.8254    0.7621 H   0  0  0  0  0  0  0  0  0  0  0  0
   -4.2841    0.4962   -0.9040 H   0  0  0  0  0  0  0  0  0  0  0  0
   -5.7022   -1.3087    0.7691 H   0  0  0  0  0  0  0  0  0  0  0  0
   -5.2450   -1.3766   -1.6842 H   0  0  0  0  0  0  0  0  0  0  0  0
   -4.0209   -2.6167   -1.4533 H   0  0  0  0  0  0  0  0  0  0  0  0
   -5.7343   -2.9879   -1.1417 H   0  0  0  0  0  0  0  0  0  0  0  0
   -3.5472   -3.4785    0.9722 H   0  0  0  0  0  0  0  0  0  0  0  0
   -5.2882   -3.7259    1.2484 H   0  0  0  0  0  0  0  0  0  0  0  0
   -4.3365   -2.6769    2.3222 H   0  0  0  0  0  0  0  0  0  0  0  0
    4.3709    1.5548    1.9727 H   0  0  0  0  0  0  0  0  0  0  0  0
    4.4902   -0.1539    3.7764 H   0  0  0  0  0  0  0  0  0  0  0  0
  1  2  1  0
  2  3  2  0
  3  4  1  0
  4  5  1  0
  5  6  2  0
  5  7  2  0
  5  8  1  0
  8  9  1  0
  9 10  1  0
 10 11  2  0
 10 12  2  0
 10 13  1  0
 13 14  1  0
 14 15  1  0
 15 16  1  0
 16 17  1  0
 17 18  1  0
 18 19  1  0
 19 20  1  0
 20 21  1  0
 20 22  1  0
  4 23  2  0
 23 24  1  0
 24 25  2  0
 25 26  1  0
 25  2  1  0
 14  8  1  0
  1 27  1  0
  1 28  1  0
  1 29  1  0
  3 30  1  0
  8 31  1  1
  9 32  1  0
  9 33  1  0
 13 34  1  0
 13 35  1  0
 14 36  1  6
 15 37  1  0
 16 38  1  0
 16 39  1  0
 17 40  1  0
 17 41  1  0
 18 42  1  0
 18 43  1  0
 20 44  1  0
 21 45  1  0
 21 46  1  0
 21 47  1  0
 22 48  1  0
 22 49  1  0
 22 50  1  0
 23 51  1  0
 24 52  1  0
M  END
$$$$
