
     RDKit          3D

 44 46  0  0  0  0  0  0  0  0999 V2000
    3.1033    0.1272    3.3901 C   0  0  0  0  0  0  0  0  0  0  0  0
    2.0926    0.5875    2.4050 C   0  0  0  0  0  0  0  0  0  0  0  0
    2.2350    0.8195    1.0908 C   0  0  0  0  0  0  0  0  0  0  0  0
    3.3744    0.7482    0.1955 C   0  0  0  0  0  0  0  0  0  0  0  0
    3.4706   -0.2642   -0.7707 C   0  0  0  0  0  0  0  0  0  0  0  0
    4.5849   -0.3328   -1.6100 C   0  0  0  0  0  0  0  0  0  0  0  0
    5.6027    0.6038   -1.4785 C   0  0  0  0  0  0  0  0  0  0  0  0
    6.6708    0.5365   -2.2836 F   0  0  0  0  0  0  0  0  0  0  0  0
    5.5283    1.6095   -0.5234 C   0  0  0  0  0  0  0  0  0  0  0  0
    4.4158    1.6808    0.3171 C   0  0  0  0  0  0  0  0  0  0  0  0
    0.7702    1.3487    0.3609 S   0  0  0  0  0  6  0  0  0  0  0  0
    0.8537    2.7291   -0.0573 O   0  0  0  0  0  0  0  0  0  0  0  0
    0.2071    0.3218   -0.4906 O   0  0  0  0  0  0  0  0  0  0  0  0
   -0.0856    1.3062    1.7863 N   0  0  0  0  0  0  0  0  0  0  0  0
   -1.5160    1.5810    1.7947 C   0  0  0  0  0  0  0  0  0  0  0  0
   -2.3527    0.3129    1.8658 C   0  0  0  0  0  0  0  0  0  0  0  0
   -3.3384    0.2269    2.5960 O   0  0  0  0  0  0  0  0  0  0  0  0
   -1.9591   -0.7022    1.0194 N   0  0  0  0  0  0  0  0  0  0  0  0
   -2.7811   -1.8757    0.8290 C   0  0  0  0  0  0  0  0  0  0  0  0
   -3.7444   -1.6018   -0.2654 C   0  0  0  0  0  0  0  0  0  0  0  0
   -5.0660   -1.2123   -0.2853 C   0  0  0  0  0  0  0  0  0  0  0  0
   -5.4270   -1.0900   -1.6479 C   0  0  0  0  0  0  0  0  0  0  0  0
   -4.3001   -1.4030   -2.3772 C   0  0  0  0  0  0  0  0  0  0  0  0
   -4.0100   -1.4465   -3.8243 C   0  0  0  0  0  0  0  0  0  0  0  0
   -3.2729   -1.7185   -1.5407 O   0  0  0  0  0  0  0  0  0  0  0  0
    0.6948    0.8516    2.8588 C   0  0  0  0  0  0  0  0  0  0  0  0
    0.2974    0.7045    3.9990 O   0  0  0  0  0  0  0  0  0  0  0  0
    3.2455    0.8816    4.1716 H   0  0  0  0  0  0  0  0  0  0  0  0
    2.7791   -0.8055    3.8643 H   0  0  0  0  0  0  0  0  0  0  0  0
    4.0771   -0.0592    2.9233 H   0  0  0  0  0  0  0  0  0  0  0  0
    2.6819   -1.0074   -0.8859 H   0  0  0  0  0  0  0  0  0  0  0  0
    4.6645   -1.1094   -2.3644 H   0  0  0  0  0  0  0  0  0  0  0  0
    6.3335    2.3322   -0.4411 H   0  0  0  0  0  0  0  0  0  0  0  0
    4.3682    2.4771    1.0575 H   0  0  0  0  0  0  0  0  0  0  0  0
   -1.7518    2.2064    2.6628 H   0  0  0  0  0  0  0  0  0  0  0  0
   -1.8196    2.1409    0.9040 H   0  0  0  0  0  0  0  0  0  0  0  0
   -1.3282   -0.4729    0.2515 H   0  0  0  0  0  0  0  0  0  0  0  0
   -2.1189   -2.7052    0.5643 H   0  0  0  0  0  0  0  0  0  0  0  0
   -3.3022   -2.1295    1.7571 H   0  0  0  0  0  0  0  0  0  0  0  0
   -5.6839   -1.0284    0.5838 H   0  0  0  0  0  0  0  0  0  0  0  0
   -6.3874   -0.7981   -2.0509 H   0  0  0  0  0  0  0  0  0  0  0  0
   -3.1344   -2.0686   -4.0317 H   0  0  0  0  0  0  0  0  0  0  0  0
   -3.8128   -0.4386   -4.2029 H   0  0  0  0  0  0  0  0  0  0  0  0
   -4.8586   -1.8639   -4.3766 H   0  0  0  0  0  0  0  0  0  0  0  0
  1  2  1  0
  2  3  2  0
  3  4  1  0
  4  5  2  0
  5  6  1  0
  6  7  2  0
  7  8  1  0
  7  9  1  0
  9 10  2  0
  3 11  1  0
 11 12  2  0
 11 13  2  0
 11 14  1  0
 14 15  1  0
 15 16  1  0
 16 17  2  0
 16 18  1  0
 18 19  1  0
 19 20  1  0
 20 21  2  0
 21 22  1  0
 22 23  2  0
 23 24  1  0
 23 25  1  0
 14 26  1  0
 26 27  2  0
 26  2  1  0
 10  4  1  0
 25 20  1  0
  1 28  1  0
  1 29  1  0
  1 30  1  0
  5 31  1  0
  6 32  1  0
  9 33  1  0
 10 34  1  0
 15 35  1  0
 15 36  1  0
 18 37  1  0
 19 38  1  0
 19 39  1  0
 21 40  1  0
 22 41  1  0
 24 42  1  0
 24 43  1  0
 24 44  1  0
M  END
$$$$
