
     RDKit          3D

 52 54  0  0  0  0  0  0  0  0999 V2000
   -7.4915   -0.4475   -1.5247 C   0  0  0  0  0  0  0  0  0  0  0  0
   -6.5290   -0.2881   -0.4628 N   0  0  0  0  0  0  0  0  0  0  0  0
   -5.4221   -1.1010   -0.4234 C   0  0  0  0  0  0  0  0  0  0  0  0
   -5.2400   -1.9954   -1.2442 O   0  0  0  0  0  0  0  0  0  0  0  0
   -4.5404   -0.8282    0.6143 N   0  0  0  0  0  0  0  0  0  0  0  0
   -4.8936    0.0078    1.7627 C   0  0  0  0  0  0  0  0  0  0  0  0
   -3.8587   -0.0299    2.8831 C   0  0  0  0  0  0  0  0  0  0  0  0
   -2.4597    0.1509    2.3095 C   0  0  0  0  0  0  0  0  0  0  0  0
   -2.1149   -0.9482    1.2838 C   0  0  0  0  0  0  0  0  0  0  0  0
   -1.1993   -0.3806    0.2063 C   0  0  0  0  0  0  0  0  0  0  0  0
   -1.6849    0.1235   -1.0087 C   0  0  0  0  0  0  0  0  0  0  0  0
   -0.8157    0.6651   -1.9594 C   0  0  0  0  0  0  0  0  0  0  0  0
    0.5557    0.7115   -1.7126 C   0  0  0  0  0  0  0  0  0  0  0  0
    1.0606    0.2073   -0.5096 C   0  0  0  0  0  0  0  0  0  0  0  0
    2.5173    0.2412   -0.1984 C   0  0  0  0  0  0  0  0  0  0  0  0
    2.8583    0.4546    0.9587 O   0  0  0  0  0  0  0  0  0  0  0  0
    3.3439   -0.0181   -1.2769 N   0  0  0  0  0  0  0  0  0  0  0  0
    4.7558   -0.0156   -1.2978 C   0  0  0  0  0  0  0  0  0  0  0  0
    5.3738   -0.3995   -2.4949 C   0  0  0  0  0  0  0  0  0  0  0  0
    6.7644   -0.4181   -2.6009 C   0  0  0  0  0  0  0  0  0  0  0  0
    7.5463   -0.0504   -1.5087 C   0  0  0  0  0  0  0  0  0  0  0  0
    6.9475    0.3374   -0.3087 C   0  0  0  0  0  0  0  0  0  0  0  0
    7.8294    0.6756    0.6827 O   0  0  0  0  0  0  0  0  0  0  0  0
    7.2711    1.0432    1.9389 C   0  0  0  0  0  0  0  0  0  0  0  0
    5.5522    0.3559   -0.2090 C   0  0  0  0  0  0  0  0  0  0  0  0
    0.1840   -0.3187    0.4490 C   0  0  0  0  0  0  0  0  0  0  0  0
   -3.3657   -1.6904    0.7576 C   0  0  0  0  0  0  0  0  0  0  0  0
   -8.3654    0.1666   -1.2957 H   0  0  0  0  0  0  0  0  0  0  0  0
   -7.0418   -0.1177   -2.4653 H   0  0  0  0  0  0  0  0  0  0  0  0
   -7.7853   -1.4974   -1.6094 H   0  0  0  0  0  0  0  0  0  0  0  0
   -6.3714    0.6563   -0.1509 H   0  0  0  0  0  0  0  0  0  0  0  0
   -5.8700   -0.3109    2.1451 H   0  0  0  0  0  0  0  0  0  0  0  0
   -4.9983    1.0369    1.3997 H   0  0  0  0  0  0  0  0  0  0  0  0
   -4.0749    0.7575    3.6136 H   0  0  0  0  0  0  0  0  0  0  0  0
   -3.9169   -0.9856    3.4184 H   0  0  0  0  0  0  0  0  0  0  0  0
   -2.3983    1.1480    1.8530 H   0  0  0  0  0  0  0  0  0  0  0  0
   -1.7206    0.1423    3.1201 H   0  0  0  0  0  0  0  0  0  0  0  0
   -1.5302   -1.7219    1.8033 H   0  0  0  0  0  0  0  0  0  0  0  0
   -2.7497    0.1107   -1.2322 H   0  0  0  0  0  0  0  0  0  0  0  0
   -1.2160    1.0606   -2.8902 H   0  0  0  0  0  0  0  0  0  0  0  0
    1.2089    1.1702   -2.4496 H   0  0  0  0  0  0  0  0  0  0  0  0
    2.8952   -0.3114   -2.1349 H   0  0  0  0  0  0  0  0  0  0  0  0
    4.7840   -0.6916   -3.3595 H   0  0  0  0  0  0  0  0  0  0  0  0
    7.2388   -0.7188   -3.5310 H   0  0  0  0  0  0  0  0  0  0  0  0
    8.6304   -0.0648   -1.5892 H   0  0  0  0  0  0  0  0  0  0  0  0
    6.6938    0.2196    2.3719 H   0  0  0  0  0  0  0  0  0  0  0  0
    6.6650    1.9509    1.8506 H   0  0  0  0  0  0  0  0  0  0  0  0
    8.0991    1.2622    2.6201 H   0  0  0  0  0  0  0  0  0  0  0  0
    5.0845    0.6658    0.7162 H   0  0  0  0  0  0  0  0  0  0  0  0
    0.5890   -0.6842    1.3921 H   0  0  0  0  0  0  0  0  0  0  0  0
   -3.1400   -2.2138   -0.1786 H   0  0  0  0  0  0  0  0  0  0  0  0
   -3.6546   -2.4690    1.4764 H   0  0  0  0  0  0  0  0  0  0  0  0
  1  2  1  0
  2  3  1  0
  3  4  2  0
  3  5  1  0
  5  6  1  0
  6  7  1  0
  7  8  1  0
  8  9  1  0
  9 10  1  0
 10 11  2  0
 11 12  1  0
 12 13  2  0
 13 14  1  0
 14 15  1  0
 15 16  2  0
 15 17  1  0
 17 18  1  0
 18 19  2  0
 19 20  1  0
 20 21  2  0
 21 22  1  0
 22 23  1  0
 23 24  1  0
 22 25  2  0
 14 26  2  0
  9 27  1  0
 27  5  1  0
 26 10  1  0
 25 18  1  0
  1 28  1  0
  1 29  1  0
  1 30  1  0
  2 31  1  0
  6 32  1  0
  6 33  1  0
  7 34  1  0
  7 35  1  0
  8 36  1  0
  8 37  1  0
  9 38  1  0
 11 39  1  0
 12 40  1  0
 13 41  1  0
 17 42  1  0
 19 43  1  0
 20 44  1  0
 21 45  1  0
 24 46  1  0
 24 47  1  0
 24 48  1  0
 25 49  1  0
 26 50  1  0
 27 51  1  0
 27 52  1  0
M  END
$$$$
