
     RDKit          3D

 49 52  0  0  0  0  0  0  0  0999 V2000
    8.2831   -0.3929    0.2627 C   0  0  0  0  0  0  0  0  0  0  0  0
    6.8226   -0.8020    0.3277 C   0  0  0  0  0  0  0  0  0  0  0  0
    6.0289    0.3684    0.1407 O   0  0  0  0  0  0  0  0  0  0  0  0
    4.6727    0.2089    0.1665 C   0  0  0  0  0  0  0  0  0  0  0  0
    3.9865   -0.9766    0.4015 C   0  0  0  0  0  0  0  0  0  0  0  0
    2.5823   -0.9962    0.4068 C   0  0  0  0  0  0  0  0  0  0  0  0
    1.8294    0.1612    0.1744 C   0  0  0  0  0  0  0  0  0  0  0  0
    0.4052    0.1472    0.1757 N   0  0  0  0  0  0  0  0  0  0  0  0
   -0.4259   -0.9503    0.4950 C   0  0  0  0  0  0  0  0  0  0  0  0
   -0.1008   -2.0744    0.8427 O   0  0  0  0  0  0  0  0  0  0  0  0
   -1.7750   -0.5266    0.3880 N   0  0  0  0  0  0  0  0  0  0  0  0
   -2.7709   -1.2822    1.1458 C   0  0  0  0  0  0  0  0  0  0  0  0
   -4.1670   -1.1938    0.5864 C   0  0  0  0  0  0  0  0  0  0  0  0
   -4.4756   -1.9569   -0.5561 C   0  0  0  0  0  0  0  0  0  0  0  0
   -5.7474   -1.9128   -1.1280 C   0  0  0  0  0  0  0  0  0  0  0  0
   -6.7324   -1.1043   -0.5693 C   0  0  0  0  0  0  0  0  0  0  0  0
   -6.4441   -0.3385    0.5594 C   0  0  0  0  0  0  0  0  0  0  0  0
   -5.1703   -0.3811    1.1356 C   0  0  0  0  0  0  0  0  0  0  0  0
   -4.8873    0.6213    2.5130 Cl  0  0  0  0  0  0  0  0  0  0  0  0
   -1.8242    0.9245    0.2767 C   0  0  0  0  0  0  0  0  0  0  0  0
   -2.8609    1.4773   -0.6997 C   0  0  0  0  0  0  0  0  0  0  0  0
   -1.9558    2.4245   -1.8904 S   0  0  0  0  0  6  0  0  0  0  0  0
   -2.4778    2.1751   -3.2156 O   0  0  0  0  0  0  0  0  0  0  0  0
   -1.7745    3.7624   -1.3660 O   0  0  0  0  0  0  0  0  0  0  0  0
   -0.4403    1.5473   -1.6820 C   0  0  0  0  0  0  0  0  0  0  0  0
   -0.3994    1.2979   -0.1815 C   0  0  0  0  0  0  0  0  0  0  0  0
    2.5392    1.3480   -0.0629 C   0  0  0  0  0  0  0  0  0  0  0  0
    3.9402    1.3701   -0.0642 C   0  0  0  0  0  0  0  0  0  0  0  0
    8.5142    0.3289    1.0528 H   0  0  0  0  0  0  0  0  0  0  0  0
    8.5069    0.0957   -0.6910 H   0  0  0  0  0  0  0  0  0  0  0  0
    8.9368   -1.2621    0.3776 H   0  0  0  0  0  0  0  0  0  0  0  0
    6.6210   -1.2484    1.3081 H   0  0  0  0  0  0  0  0  0  0  0  0
    6.6182   -1.5291   -0.4666 H   0  0  0  0  0  0  0  0  0  0  0  0
    4.5038   -1.9116    0.5906 H   0  0  0  0  0  0  0  0  0  0  0  0
    2.1108   -1.9562    0.5929 H   0  0  0  0  0  0  0  0  0  0  0  0
   -2.7116   -0.9624    2.1920 H   0  0  0  0  0  0  0  0  0  0  0  0
   -2.4825   -2.3415    1.1599 H   0  0  0  0  0  0  0  0  0  0  0  0
   -3.7153   -2.5937   -1.0074 H   0  0  0  0  0  0  0  0  0  0  0  0
   -5.9695   -2.5119   -2.0076 H   0  0  0  0  0  0  0  0  0  0  0  0
   -7.7249   -1.0697   -1.0126 H   0  0  0  0  0  0  0  0  0  0  0  0
   -7.2229    0.2889    0.9880 H   0  0  0  0  0  0  0  0  0  0  0  0
   -1.9923    1.3162    1.2883 H   0  0  0  0  0  0  0  0  0  0  0  0
   -3.3921    0.6990   -1.2501 H   0  0  0  0  0  0  0  0  0  0  0  0
   -3.5771    2.1414   -0.2093 H   0  0  0  0  0  0  0  0  0  0  0  0
    0.3899    2.1565   -2.0456 H   0  0  0  0  0  0  0  0  0  0  0  0
   -0.4978    0.6210   -2.2633 H   0  0  0  0  0  0  0  0  0  0  0  0
   -0.0776    2.1913    0.3676 H   0  0  0  0  0  0  0  0  0  0  0  0
    2.0393    2.2947   -0.2379 H   0  0  0  0  0  0  0  0  0  0  0  0
    4.4622    2.3077   -0.2399 H   0  0  0  0  0  0  0  0  0  0  0  0
  1  2  1  0
  2  3  1  0
  3  4  1  0
  4  5  2  0
  5  6  1  0
  6  7  2  0
  7  8  1  0
  8  9  1  0
  9 10  2  0
  9 11  1  0
 11 12  1  0
 12 13  1  0
 13 14  2  0
 14 15  1  0
 15 16  2  0
 16 17  1  0
 17 18  2  0
 18 19  1  0
 11 20  1  0
 20 21  1  0
 21 22  1  0
 22 23  2  0
 22 24  2  0
 22 25  1  0
 25 26  1  0
  7 27  1  0
 27 28  2  0
 28  4  1  0
 26  8  1  0
 18 13  1  0
 26 20  1  0
  1 29  1  0
  1 30  1  0
  1 31  1  0
  2 32  1  0
  2 33  1  0
  5 34  1  0
  6 35  1  0
 12 36  1  0
 12 37  1  0
 14 38  1  0
 15 39  1  0
 16 40  1  0
 17 41  1  0
 20 42  1  0
 21 43  1  0
 21 44  1  0
 25 45  1  0
 25 46  1  0
 26 47  1  0
 27 48  1  0
 28 49  1  0
M  END
$$$$
