
     RDKit          3D

 59 62  0  0  0  0  0  0  0  0999 V2000
    9.3293    2.5029   -0.9806 C   0  0  0  0  0  0  0  0  0  0  0  0
    8.1746    2.9144   -0.0840 C   0  0  0  0  0  0  0  0  0  0  0  0
    6.9496    2.1456   -0.3949 C   0  0  0  0  0  0  0  0  0  0  0  0
    6.5879    0.9488    0.0088 N   0  0  0  0  0  0  0  0  0  0  0  0
    5.3727    0.7898   -0.6111 C   0  0  0  0  0  0  0  0  0  0  0  0
    4.5007   -0.5012   -0.4509 C   0  0  0  0  0  0  0  0  0  0  0  0
    3.2752   -0.6845   -1.0472 C   0  0  0  0  0  0  0  0  0  0  0  0
    2.7013   -1.9546   -0.7192 C   0  0  0  0  0  0  0  0  0  0  0  0
    1.1290   -2.4085   -1.3122 S   0  0  0  0  0  6  0  0  0  0  0  0
    1.1521   -2.0138   -2.7037 O   0  0  0  0  0  0  0  0  0  0  0  0
    0.9200   -3.7815   -0.9124 O   0  0  0  0  0  0  0  0  0  0  0  0
   -0.0261   -1.4442   -0.5014 N   0  0  0  0  0  0  0  0  0  0  0  0
   -0.0201   -1.5743    0.9772 C   0  0  0  0  0  0  0  0  0  0  0  0
   -1.1575   -0.7588    1.5725 C   0  0  0  0  0  0  0  0  0  0  0  0
   -2.5089   -1.3317    1.1396 C   0  0  0  0  0  0  0  0  0  0  0  0
   -3.6237   -0.2969    1.2196 C   0  0  0  0  0  0  0  0  0  0  0  0
   -4.5966   -0.4683    1.9484 O   0  0  0  0  0  0  0  0  0  0  0  0
   -3.4804    0.8077    0.4159 N   0  0  0  0  0  0  0  0  0  0  0  0
   -4.4619    1.8791    0.3903 C   0  0  0  0  0  0  0  0  0  0  0  0
   -5.4134    1.7984   -0.8154 C   0  0  0  0  0  0  0  0  0  0  0  0
   -6.4465    0.6840   -0.7339 C   0  0  0  0  0  0  0  0  0  0  0  0
   -7.5838    1.3462   -0.0005 C   0  0  0  0  0  0  0  0  0  0  0  0
   -7.5326    2.7545   -0.5521 C   0  0  0  0  0  0  0  0  0  0  0  0
   -6.1636    3.0292   -0.8853 O   0  0  0  0  0  0  0  0  0  0  0  0
   -2.4538   -2.0051   -0.2374 C   0  0  0  0  0  0  0  0  0  0  0  0
   -1.3698   -1.4342   -1.1413 C   0  0  0  0  0  0  0  0  0  0  0  0
    3.5144   -2.6964    0.1218 C   0  0  0  0  0  0  0  0  0  0  0  0
    3.3064   -4.0527    0.7094 C   0  0  0  0  0  0  0  0  0  0  0  0
    4.9578   -1.8407    0.4935 S   0  0  0  0  0  0  0  0  0  0  0  0
    4.9854    1.8362   -1.3560 N   0  0  0  0  0  0  0  0  0  0  0  0
    6.0386    2.7400   -1.2161 O   0  0  0  0  0  0  0  0  0  0  0  0
    9.5708    1.4427   -0.8572 H   0  0  0  0  0  0  0  0  0  0  0  0
    9.0873    2.6723   -2.0346 H   0  0  0  0  0  0  0  0  0  0  0  0
   10.2249    3.0843   -0.7397 H   0  0  0  0  0  0  0  0  0  0  0  0
    8.4475    2.7527    0.9650 H   0  0  0  0  0  0  0  0  0  0  0  0
    7.9856    3.9864   -0.2030 H   0  0  0  0  0  0  0  0  0  0  0  0
    2.8034    0.0495   -1.6909 H   0  0  0  0  0  0  0  0  0  0  0  0
   -0.1074   -2.6247    1.2782 H   0  0  0  0  0  0  0  0  0  0  0  0
    0.9249   -1.1833    1.3671 H   0  0  0  0  0  0  0  0  0  0  0  0
   -1.0924   -0.7753    2.6668 H   0  0  0  0  0  0  0  0  0  0  0  0
   -1.0448    0.2919    1.2776 H   0  0  0  0  0  0  0  0  0  0  0  0
   -2.7841   -2.1133    1.8611 H   0  0  0  0  0  0  0  0  0  0  0  0
   -2.6261    0.9524   -0.1032 H   0  0  0  0  0  0  0  0  0  0  0  0
   -3.8985    2.8171    0.3444 H   0  0  0  0  0  0  0  0  0  0  0  0
   -5.0196    1.9036    1.3314 H   0  0  0  0  0  0  0  0  0  0  0  0
   -4.8232    1.7049   -1.7342 H   0  0  0  0  0  0  0  0  0  0  0  0
   -6.7776    0.4243   -1.7471 H   0  0  0  0  0  0  0  0  0  0  0  0
   -6.0923   -0.2342   -0.2601 H   0  0  0  0  0  0  0  0  0  0  0  0
   -8.5496    0.8608   -0.1611 H   0  0  0  0  0  0  0  0  0  0  0  0
   -7.3847    1.3583    1.0778 H   0  0  0  0  0  0  0  0  0  0  0  0
   -8.1230    2.8404   -1.4713 H   0  0  0  0  0  0  0  0  0  0  0  0
   -7.8935    3.4993    0.1641 H   0  0  0  0  0  0  0  0  0  0  0  0
   -3.4253   -1.9462   -0.7434 H   0  0  0  0  0  0  0  0  0  0  0  0
   -2.2468   -3.0739   -0.0924 H   0  0  0  0  0  0  0  0  0  0  0  0
   -1.5966   -0.3968   -1.4102 H   0  0  0  0  0  0  0  0  0  0  0  0
   -1.3660   -1.9940   -2.0837 H   0  0  0  0  0  0  0  0  0  0  0  0
    2.3826   -4.0768    1.2945 H   0  0  0  0  0  0  0  0  0  0  0  0
    4.1213   -4.3445    1.3801 H   0  0  0  0  0  0  0  0  0  0  0  0
    3.2466   -4.8069   -0.0813 H   0  0  0  0  0  0  0  0  0  0  0  0
  1  2  1  0
  2  3  1  0
  3  4  2  0
  4  5  1  0
  5  6  1  0
  6  7  2  0
  7  8  1  0
  8  9  1  0
  9 10  2  0
  9 11  2  0
  9 12  1  0
 12 13  1  0
 13 14  1  0
 14 15  1  0
 15 16  1  0
 16 17  2  0
 16 18  1  0
 18 19  1  0
 19 20  1  0
 20 21  1  0
 21 22  1  0
 22 23  1  0
 23 24  1  0
 15 25  1  0
 25 26  1  0
  8 27  2  0
 27 28  1  0
 27 29  1  0
  5 30  2  0
 30 31  1  0
 31  3  1  0
 29  6  1  0
 26 12  1  0
 24 20  1  0
  1 32  1  0
  1 33  1  0
  1 34  1  0
  2 35  1  0
  2 36  1  0
  7 37  1  0
 13 38  1  0
 13 39  1  0
 14 40  1  0
 14 41  1  0
 15 42  1  0
 18 43  1  0
 19 44  1  0
 19 45  1  0
 20 46  1  0
 21 47  1  0
 21 48  1  0
 22 49  1  0
 22 50  1  0
 23 51  1  0
 23 52  1  0
 25 53  1  0
 25 54  1  0
 26 55  1  0
 26 56  1  0
 28 57  1  0
 28 58  1  0
 28 59  1  0
M  END
$$$$
