
     RDKit          3D

 61 63  0  0  0  0  0  0  0  0999 V2000
   -5.3345    1.6593    0.9567 C   0  0  0  0  0  0  0  0  0  0  0  0
   -5.3777    0.9885    2.3185 C   0  0  0  0  0  0  0  0  0  0  0  0
   -4.9222   -0.4128    2.2851 N   0  0  0  0  0  0  0  0  0  0  0  0
   -5.7869   -1.3960    1.6120 C   0  0  0  0  0  0  0  0  0  0  0  0
   -6.6530   -2.1026    2.6406 C   0  0  0  0  0  0  0  0  0  0  0  0
   -3.3281   -0.8143    2.6621 S   0  0  0  0  0  6  0  0  0  0  0  0
   -2.8512    0.1032    3.6751 O   0  0  0  0  0  0  0  0  0  0  0  0
   -3.2467   -2.2472    2.8542 O   0  0  0  0  0  0  0  0  0  0  0  0
   -2.4421   -0.4474    1.1593 C   0  0  0  0  0  0  0  0  0  0  0  0
   -2.4028   -1.3995    0.1279 C   0  0  0  0  0  0  0  0  0  0  0  0
   -1.6824   -1.1450   -1.0474 C   0  0  0  0  0  0  0  0  0  0  0  0
   -0.9991    0.0544   -1.1689 C   0  0  0  0  0  0  0  0  0  0  0  0
   -1.0167    0.9783   -0.1177 C   0  0  0  0  0  0  0  0  0  0  0  0
   -1.7272    0.7474    1.0528 C   0  0  0  0  0  0  0  0  0  0  0  0
   -0.2308    2.2107   -0.4494 C   0  0  0  0  0  0  0  0  0  0  0  0
    0.4585    1.8044   -1.7604 C   0  0  0  0  0  0  0  0  0  0  0  0
    1.9697    1.6518   -1.5035 C   0  0  0  0  0  0  0  0  0  0  0  0
    2.7084    2.6318   -1.4149 O   0  0  0  0  0  0  0  0  0  0  0  0
    2.4052    0.3717   -1.2335 N   0  0  0  0  0  0  0  0  0  0  0  0
    3.8078    0.0721   -1.0049 C   0  0  0  0  0  0  0  0  0  0  0  0
    4.6315    0.1563   -2.2916 C   0  0  0  0  0  0  0  0  0  0  0  0
    6.2981   -0.5783   -2.1527 S   0  0  0  0  0  0  0  0  0  0  0  0
    7.0605    0.5722   -0.9606 C   0  0  0  0  0  0  0  0  0  0  0  0
    6.9186    0.0913    0.4367 C   0  0  0  0  0  0  0  0  0  0  0  0
    7.2997   -1.0620    1.0941 C   0  0  0  0  0  0  0  0  0  0  0  0
    6.8829   -0.9146    2.4387 C   0  0  0  0  0  0  0  0  0  0  0  0
    6.2837    0.3197    2.5203 C   0  0  0  0  0  0  0  0  0  0  0  0
    6.3046    0.9390    1.3126 O   0  0  0  0  0  0  0  0  0  0  0  0
   -0.1956    0.5473   -2.2138 N   0  0  0  0  0  0  0  0  0  0  0  0
   -0.0097    0.1261   -3.5121 C   0  0  0  0  0  0  0  0  0  0  0  0
   -0.8159   -1.0224   -4.0488 C   0  0  0  0  0  0  0  0  0  0  0  0
    0.8132    0.6798   -4.2465 O   0  0  0  0  0  0  0  0  0  0  0  0
   -4.3259    1.6713    0.5392 H   0  0  0  0  0  0  0  0  0  0  0  0
   -5.6713    2.6976    1.0422 H   0  0  0  0  0  0  0  0  0  0  0  0
   -5.9867    1.1604    0.2342 H   0  0  0  0  0  0  0  0  0  0  0  0
   -6.4031    1.0131    2.7057 H   0  0  0  0  0  0  0  0  0  0  0  0
   -4.7803    1.5688    3.0288 H   0  0  0  0  0  0  0  0  0  0  0  0
   -5.1916   -2.1311    1.0624 H   0  0  0  0  0  0  0  0  0  0  0  0
   -6.4280   -0.9116    0.8697 H   0  0  0  0  0  0  0  0  0  0  0  0
   -6.0413   -2.6272    3.3818 H   0  0  0  0  0  0  0  0  0  0  0  0
   -7.2884   -1.3902    3.1773 H   0  0  0  0  0  0  0  0  0  0  0  0
   -7.3008   -2.8370    2.1520 H   0  0  0  0  0  0  0  0  0  0  0  0
   -2.9175   -2.3518    0.2414 H   0  0  0  0  0  0  0  0  0  0  0  0
   -1.6623   -1.9178   -1.8038 H   0  0  0  0  0  0  0  0  0  0  0  0
   -1.7262    1.4784    1.8572 H   0  0  0  0  0  0  0  0  0  0  0  0
   -0.9198    3.0452   -0.6201 H   0  0  0  0  0  0  0  0  0  0  0  0
    0.4686    2.4720    0.3508 H   0  0  0  0  0  0  0  0  0  0  0  0
    0.3357    2.5716   -2.5351 H   0  0  0  0  0  0  0  0  0  0  0  0
    1.7783   -0.3920   -1.4537 H   0  0  0  0  0  0  0  0  0  0  0  0
    4.1785    0.7838   -0.2619 H   0  0  0  0  0  0  0  0  0  0  0  0
    3.8426   -0.9348   -0.5758 H   0  0  0  0  0  0  0  0  0  0  0  0
    4.7244    1.1923   -2.6350 H   0  0  0  0  0  0  0  0  0  0  0  0
    4.1156   -0.3899   -3.0901 H   0  0  0  0  0  0  0  0  0  0  0  0
    6.6446    1.5767   -1.0884 H   0  0  0  0  0  0  0  0  0  0  0  0
    8.1269    0.6352   -1.2026 H   0  0  0  0  0  0  0  0  0  0  0  0
    7.8102   -1.9058    0.6504 H   0  0  0  0  0  0  0  0  0  0  0  0
    7.0059   -1.6188    3.2494 H   0  0  0  0  0  0  0  0  0  0  0  0
    5.8182    0.8758    3.3222 H   0  0  0  0  0  0  0  0  0  0  0  0
   -0.4422   -1.9644   -3.6418 H   0  0  0  0  0  0  0  0  0  0  0  0
   -1.8788   -0.8840   -3.8385 H   0  0  0  0  0  0  0  0  0  0  0  0
   -0.7052   -1.0574   -5.1377 H   0  0  0  0  0  0  0  0  0  0  0  0
  1  2  1  0
  2  3  1  0
  3  4  1  0
  4  5  1  0
  3  6  1  0
  6  7  2  0
  6  8  2  0
  6  9  1  0
  9 10  2  0
 10 11  1  0
 11 12  2  0
 12 13  1  0
 13 14  2  0
 13 15  1  0
 15 16  1  0
 16 17  1  0
 17 18  2  0
 17 19  1  0
 19 20  1  0
 20 21  1  0
 21 22  1  0
 22 23  1  0
 23 24  1  0
 24 25  2  0
 25 26  1  0
 26 27  2  0
 27 28  1  0
 16 29  1  0
 29 30  1  0
 30 31  1  0
 30 32  2  0
 14  9  1  0
 28 24  1  0
 29 12  1  0
  1 33  1  0
  1 34  1  0
  1 35  1  0
  2 36  1  0
  2 37  1  0
  4 38  1  0
  4 39  1  0
  5 40  1  0
  5 41  1  0
  5 42  1  0
 10 43  1  0
 11 44  1  0
 14 45  1  0
 15 46  1  0
 15 47  1  0
 16 48  1  0
 19 49  1  0
 20 50  1  0
 20 51  1  0
 21 52  1  0
 21 53  1  0
 23 54  1  0
 23 55  1  0
 25 56  1  0
 26 57  1  0
 27 58  1  0
 31 59  1  0
 31 60  1  0
 31 61  1  0
M  END
$$$$
