
     RDKit          3D

 68 72  0  0  0  0  0  0  0  0999 V2000
   -0.8725   -3.0154   -2.5093 O   0  0  0  0  0  0  0  0  0  0  0  0
   -0.4467   -1.9057   -2.2156 C   0  0  0  0  0  0  0  0  0  0  0  0
    0.8942   -1.3972   -2.6947 C   0  0  0  0  0  0  0  0  0  0  0  0
    1.9193   -2.5137   -2.7887 C   0  0  0  0  0  0  0  0  0  0  0  0
    2.5498   -3.0392   -1.2029 S   0  0  0  0  0  6  0  0  0  0  0  0
    1.4449   -3.3909   -0.3337 O   0  0  0  0  0  0  0  0  0  0  0  0
    3.6348   -3.9734   -1.4392 O   0  0  0  0  0  0  0  0  0  0  0  0
    3.3030   -1.5736   -0.5211 C   0  0  0  0  0  0  0  0  0  0  0  0
    4.4960   -1.0925   -1.0826 C   0  0  0  0  0  0  0  0  0  0  0  0
    5.1022    0.0628   -0.5690 C   0  0  0  0  0  0  0  0  0  0  0  0
    4.5138    0.7119    0.5057 C   0  0  0  0  0  0  0  0  0  0  0  0
    3.3338    0.2044    1.0662 C   0  0  0  0  0  0  0  0  0  0  0  0
    2.7153   -0.9375    0.5739 C   0  0  0  0  0  0  0  0  0  0  0  0
    2.8837    1.0183    2.2379 C   0  0  0  0  0  0  0  0  0  0  0  0
    3.8858    2.1730    2.2219 C   0  0  0  0  0  0  0  0  0  0  0  0
    4.8931    1.8779    1.1949 N   0  0  0  0  0  0  0  0  0  0  0  0
    5.9369    2.7698    1.0140 C   0  0  0  0  0  0  0  0  0  0  0  0
    6.0310    3.8010    1.6762 O   0  0  0  0  0  0  0  0  0  0  0  0
    6.9697    2.4986   -0.0219 C   0  0  0  0  0  0  0  0  0  0  0  0
    8.1252    1.5634    0.2666 C   0  0  0  0  0  0  0  0  0  0  0  0
    8.3770    3.0344    0.1652 C   0  0  0  0  0  0  0  0  0  0  0  0
   -1.1513   -0.9766   -1.4812 N   0  0  0  0  0  0  0  0  0  0  0  0
   -2.5062   -1.2519   -1.0061 C   0  0  0  0  0  0  0  0  0  0  0  0
   -3.5185   -1.1179   -2.1519 C   0  0  0  0  0  0  0  0  0  0  0  0
   -4.8739   -0.6521   -1.6278 C   0  0  0  0  0  0  0  0  0  0  0  0
   -4.7710    0.6868   -1.0431 N   0  0  0  0  0  0  0  0  0  0  0  0
   -6.0181    1.1793   -0.4448 C   0  0  0  0  0  0  0  0  0  0  0  0
   -6.4883    0.4785    0.8147 C   0  0  0  0  0  0  0  0  0  0  0  0
   -7.3194   -0.6497    0.7353 C   0  0  0  0  0  0  0  0  0  0  0  0
   -7.7464   -1.3041    1.8918 C   0  0  0  0  0  0  0  0  0  0  0  0
   -7.3580   -0.8311    3.1439 C   0  0  0  0  0  0  0  0  0  0  0  0
   -6.5468    0.2982    3.2404 C   0  0  0  0  0  0  0  0  0  0  0  0
   -6.1168    0.9504    2.0835 C   0  0  0  0  0  0  0  0  0  0  0  0
   -3.5635    0.9267   -0.2557 C   0  0  0  0  0  0  0  0  0  0  0  0
   -2.8562   -0.3536    0.1883 C   0  0  0  0  0  0  0  0  0  0  0  0
    1.2444   -0.5818   -2.0549 H   0  0  0  0  0  0  0  0  0  0  0  0
    0.7262   -0.9779   -3.6941 H   0  0  0  0  0  0  0  0  0  0  0  0
    2.7830   -2.1833   -3.3756 H   0  0  0  0  0  0  0  0  0  0  0  0
    1.5140   -3.4071   -3.2745 H   0  0  0  0  0  0  0  0  0  0  0  0
    4.9681   -1.6186   -1.9108 H   0  0  0  0  0  0  0  0  0  0  0  0
    6.0187    0.3989   -1.0312 H   0  0  0  0  0  0  0  0  0  0  0  0
    1.8088   -1.3207    1.0355 H   0  0  0  0  0  0  0  0  0  0  0  0
    1.8574    1.3785    2.1170 H   0  0  0  0  0  0  0  0  0  0  0  0
    2.9643    0.4385    3.1643 H   0  0  0  0  0  0  0  0  0  0  0  0
    4.3733    2.3043    3.1948 H   0  0  0  0  0  0  0  0  0  0  0  0
    3.3951    3.1195    1.9641 H   0  0  0  0  0  0  0  0  0  0  0  0
    6.5984    2.5818   -1.0390 H   0  0  0  0  0  0  0  0  0  0  0  0
    8.4844    0.9295   -0.5350 H   0  0  0  0  0  0  0  0  0  0  0  0
    8.1878    1.1103    1.2506 H   0  0  0  0  0  0  0  0  0  0  0  0
    8.8888    3.4142   -0.7125 H   0  0  0  0  0  0  0  0  0  0  0  0
    8.6044    3.5792    1.0752 H   0  0  0  0  0  0  0  0  0  0  0  0
   -0.8631   -0.0087   -1.5294 H   0  0  0  0  0  0  0  0  0  0  0  0
   -2.5097   -2.2923   -0.6513 H   0  0  0  0  0  0  0  0  0  0  0  0
   -3.1589   -0.4087   -2.9101 H   0  0  0  0  0  0  0  0  0  0  0  0
   -3.6252   -2.0810   -2.6662 H   0  0  0  0  0  0  0  0  0  0  0  0
   -5.5916   -0.6391   -2.4579 H   0  0  0  0  0  0  0  0  0  0  0  0
   -5.2313   -1.3900   -0.8991 H   0  0  0  0  0  0  0  0  0  0  0  0
   -5.9158    2.2541   -0.2388 H   0  0  0  0  0  0  0  0  0  0  0  0
   -6.8208    1.1289   -1.1943 H   0  0  0  0  0  0  0  0  0  0  0  0
   -7.6357   -1.0306   -0.2334 H   0  0  0  0  0  0  0  0  0  0  0  0
   -8.3836   -2.1824    1.8173 H   0  0  0  0  0  0  0  0  0  0  0  0
   -7.6913   -1.3427    4.0430 H   0  0  0  0  0  0  0  0  0  0  0  0
   -6.2497    0.6728    4.2166 H   0  0  0  0  0  0  0  0  0  0  0  0
   -5.4936    1.8366    2.1791 H   0  0  0  0  0  0  0  0  0  0  0  0
   -2.8737    1.5061   -0.8814 H   0  0  0  0  0  0  0  0  0  0  0  0
   -3.7511    1.5599    0.6169 H   0  0  0  0  0  0  0  0  0  0  0  0
   -1.9581   -0.1052    0.7677 H   0  0  0  0  0  0  0  0  0  0  0  0
   -3.5198   -0.9022    0.8700 H   0  0  0  0  0  0  0  0  0  0  0  0
  1  2  2  0
  2  3  1  0
  3  4  1  0
  4  5  1  0
  5  6  2  0
  5  7  2  0
  5  8  1  0
  8  9  2  0
  9 10  1  0
 10 11  2  0
 11 12  1  0
 12 13  2  0
 12 14  1  0
 14 15  1  0
 15 16  1  0
 16 17  1  0
 17 18  2  0
 17 19  1  0
 19 20  1  0
 20 21  1  0
  2 22  1  0
 22 23  1  0
 23 24  1  0
 24 25  1  0
 25 26  1  0
 26 27  1  0
 27 28  1  0
 28 29  2  0
 29 30  1  0
 30 31  2  0
 31 32  1  0
 32 33  2  0
 26 34  1  0
 34 35  1  0
 13  8  1  0
 21 19  1  0
 35 23  1  0
 16 11  1  0
 33 28  1  0
  3 36  1  0
  3 37  1  0
  4 38  1  0
  4 39  1  0
  9 40  1  0
 10 41  1  0
 13 42  1  0
 14 43  1  0
 14 44  1  0
 15 45  1  0
 15 46  1  0
 19 47  1  0
 20 48  1  0
 20 49  1  0
 21 50  1  0
 21 51  1  0
 22 52  1  0
 23 53  1  0
 24 54  1  0
 24 55  1  0
 25 56  1  0
 25 57  1  0
 27 58  1  0
 27 59  1  0
 29 60  1  0
 30 61  1  0
 31 62  1  0
 32 63  1  0
 33 64  1  0
 34 65  1  0
 34 66  1  0
 35 67  1  0
 35 68  1  0
M  END
$$$$
