
     RDKit          3D

 50 53  0  0  0  0  0  0  0  0999 V2000
    2.9928   -0.3819   -3.3538 O   0  0  0  0  0  0  0  0  0  0  0  0
    1.6614   -0.0584   -2.8876 S   0  0  0  0  0  6  0  0  0  0  0  0
    0.7203    0.6583   -3.7218 O   0  0  0  0  0  0  0  0  0  0  0  0
    0.8773   -1.5170   -2.2354 C   0  0  0  0  0  0  0  0  0  0  0  0
    0.5595   -1.2228   -0.7445 C   0  0  2  0  0  0  0  0  0  0  0  0
   -0.7816   -0.6256   -0.5062 N   0  0  0  0  0  0  0  0  0  0  0  0
   -1.1705   -0.6135    0.9231 C   0  0  0  0  0  0  0  0  0  0  0  0
   -2.4511    0.2207    1.1791 C   0  0  0  0  0  0  0  0  0  0  0  0
   -3.4849   -0.0392    0.1786 N   0  0  0  0  0  0  0  0  0  0  0  0
   -4.7768    0.2995    0.5449 C   0  0  0  0  0  0  0  0  0  0  0  0
   -5.8098   -0.2854   -0.0868 N   0  0  0  0  0  0  0  0  0  0  0  0
   -7.0551    0.0822    0.2701 C   0  0  0  0  0  0  0  0  0  0  0  0
   -7.3219    1.0118    1.2400 C   0  0  0  0  0  0  0  0  0  0  0  0
   -6.2154    1.5552    1.8371 C   0  0  0  0  0  0  0  0  0  0  0  0
   -4.9529    1.2176    1.5130 N   0  0  0  0  0  0  0  0  0  0  0  0
   -3.3126   -1.2085   -0.6711 C   0  0  0  0  0  0  0  0  0  0  0  0
   -1.8840   -1.2526   -1.2862 C   0  0  0  0  0  0  0  0  0  0  0  0
    1.6708   -0.2436   -0.2702 C   0  0  1  0  0  0  0  0  0  0  0  0
    3.1540   -1.1401    0.1539 S   0  0  0  0  0  6  0  0  0  0  0  0
    3.5168   -2.0180   -0.9364 O   0  0  0  0  0  0  0  0  0  0  0  0
    2.9440   -1.6917    1.4802 O   0  0  0  0  0  0  0  0  0  0  0  0
    4.4324    0.0832    0.3154 C   0  0  0  0  0  0  0  0  0  0  0  0
    5.3591    0.2601   -0.7174 C   0  0  0  0  0  0  0  0  0  0  0  0
    6.3673    1.2160   -0.5778 C   0  0  0  0  0  0  0  0  0  0  0  0
    6.4506    1.9728    0.5915 C   0  0  0  0  0  0  0  0  0  0  0  0
    7.6939    3.1493    0.7604 Cl  0  0  0  0  0  0  0  0  0  0  0  0
    5.5360    1.7801    1.6285 C   0  0  0  0  0  0  0  0  0  0  0  0
    4.5235    0.8276    1.4959 C   0  0  0  0  0  0  0  0  0  0  0  0
    1.8260    0.8082   -1.3533 C   0  0  0  0  0  0  0  0  0  0  0  0
    1.5786   -2.3494   -2.3316 H   0  0  0  0  0  0  0  0  0  0  0  0
    0.0167   -1.7569   -2.8610 H   0  0  0  0  0  0  0  0  0  0  0  0
    0.6019   -2.1754   -0.2003 H   0  0  0  0  0  0  0  0  0  0  0  0
   -0.3844   -0.1934    1.5572 H   0  0  0  0  0  0  0  0  0  0  0  0
   -1.3286   -1.6438    1.2704 H   0  0  0  0  0  0  0  0  0  0  0  0
   -2.1922    1.2866    1.1519 H   0  0  0  0  0  0  0  0  0  0  0  0
   -2.7996   -0.0194    2.1923 H   0  0  0  0  0  0  0  0  0  0  0  0
   -7.8555   -0.4124   -0.2716 H   0  0  0  0  0  0  0  0  0  0  0  0
   -8.3277    1.2964    1.5113 H   0  0  0  0  0  0  0  0  0  0  0  0
   -6.3072    2.3040    2.6179 H   0  0  0  0  0  0  0  0  0  0  0  0
   -3.4761   -2.1161   -0.0750 H   0  0  0  0  0  0  0  0  0  0  0  0
   -4.0268   -1.2234   -1.5037 H   0  0  0  0  0  0  0  0  0  0  0  0
   -1.6674   -2.3107   -1.4822 H   0  0  0  0  0  0  0  0  0  0  0  0
   -1.9233   -0.7405   -2.2553 H   0  0  0  0  0  0  0  0  0  0  0  0
    1.4138    0.2672    0.6633 H   0  0  0  0  0  0  0  0  0  0  0  0
    5.3069   -0.3328   -1.6303 H   0  0  0  0  0  0  0  0  0  0  0  0
    7.0862    1.3611   -1.3810 H   0  0  0  0  0  0  0  0  0  0  0  0
    5.6150    2.3620    2.5439 H   0  0  0  0  0  0  0  0  0  0  0  0
    3.8283    0.6666    2.3172 H   0  0  0  0  0  0  0  0  0  0  0  0
    2.7680    1.3555   -1.3453 H   0  0  0  0  0  0  0  0  0  0  0  0
    1.0041    1.5304   -1.3039 H   0  0  0  0  0  0  0  0  0  0  0  0
  1  2  2  0
  2  3  2  0
  2  4  1  0
  4  5  1  0
  5  6  1  0
  6  7  1  0
  7  8  1  0
  8  9  1  0
  9 10  1  0
 10 11  2  0
 11 12  1  0
 12 13  2  0
 13 14  1  0
 14 15  2  0
  9 16  1  0
 16 17  1  0
  5 18  1  0
 18 19  1  0
 19 20  2  0
 19 21  2  0
 19 22  1  0
 22 23  2  0
 23 24  1  0
 24 25  2  0
 25 26  1  0
 25 27  1  0
 27 28  2  0
 18 29  1  0
 29  2  1  0
 17  6  1  0
 28 22  1  0
 15 10  1  0
  4 30  1  0
  4 31  1  0
  5 32  1  1
  7 33  1  0
  7 34  1  0
  8 35  1  0
  8 36  1  0
 12 37  1  0
 13 38  1  0
 14 39  1  0
 16 40  1  0
 16 41  1  0
 17 42  1  0
 17 43  1  0
 18 44  1  1
 23 45  1  0
 24 46  1  0
 27 47  1  0
 28 48  1  0
 29 49  1  0
 29 50  1  0
M  END
$$$$
