
     RDKit          3D

 45 46  0  0  0  0  0  0  0  0999 V2000
   -3.9319   -0.0243   -2.3525 C   0  0  0  0  0  0  0  0  0  0  0  0
   -2.7630   -0.8270   -1.8074 C   0  0  0  0  0  0  0  0  0  0  0  0
   -1.6689    0.0580   -1.2559 C   0  0  0  0  0  0  0  0  0  0  0  0
   -0.6438    0.2202   -1.9327 O   0  0  0  0  0  0  0  0  0  0  0  0
   -1.7943    0.6942   -0.0407 N   0  0  0  0  0  0  0  0  0  0  0  0
   -2.8080    0.6947    0.9437 C   0  0  0  0  0  0  0  0  0  0  0  0
   -3.9447   -0.0838    1.0868 C   0  0  0  0  0  0  0  0  0  0  0  0
   -4.7937    0.1379    2.1810 C   0  0  0  0  0  0  0  0  0  0  0  0
   -4.5080    1.1323    3.1241 C   0  0  0  0  0  0  0  0  0  0  0  0
   -3.3676    1.9174    2.9866 C   0  0  0  0  0  0  0  0  0  0  0  0
   -2.5344    1.6823    1.8996 C   0  0  0  0  0  0  0  0  0  0  0  0
   -1.3022    2.4577    1.5529 C   0  0  0  0  0  0  0  0  0  0  0  0
   -0.7111    1.6084    0.4191 C   0  0  0  0  0  0  0  0  0  0  0  0
    0.4990    0.7865    0.9216 C   0  0  0  0  0  0  0  0  0  0  0  0
    0.6836    0.5009    2.1019 O   0  0  0  0  0  0  0  0  0  0  0  0
    1.3521    0.3784   -0.0907 N   0  0  0  0  0  0  0  0  0  0  0  0
    2.4322   -0.5525    0.1716 C   0  0  0  0  0  0  0  0  0  0  0  0
    3.5639   -0.3585   -0.8330 C   0  0  0  0  0  0  0  0  0  0  0  0
    4.7895   -1.2447   -0.5427 C   0  0  0  0  0  0  0  0  0  0  0  0
    5.9580   -0.8285   -1.4398 C   0  0  0  0  0  0  0  0  0  0  0  0
    4.4902   -2.7306   -0.7439 C   0  0  0  0  0  0  0  0  0  0  0  0
   -3.6217    0.5479   -3.2374 H   0  0  0  0  0  0  0  0  0  0  0  0
   -4.3251    0.6949   -1.6257 H   0  0  0  0  0  0  0  0  0  0  0  0
   -4.7423   -0.6941   -2.6556 H   0  0  0  0  0  0  0  0  0  0  0  0
   -2.3344   -1.4205   -2.6261 H   0  0  0  0  0  0  0  0  0  0  0  0
   -3.0582   -1.5620   -1.0584 H   0  0  0  0  0  0  0  0  0  0  0  0
   -4.2188   -0.8748    0.4058 H   0  0  0  0  0  0  0  0  0  0  0  0
   -5.6839   -0.4741    2.3021 H   0  0  0  0  0  0  0  0  0  0  0  0
   -5.1765    1.2885    3.9673 H   0  0  0  0  0  0  0  0  0  0  0  0
   -3.1369    2.6947    3.7090 H   0  0  0  0  0  0  0  0  0  0  0  0
   -0.6378    2.5835    2.4112 H   0  0  0  0  0  0  0  0  0  0  0  0
   -1.5952    3.4439    1.1782 H   0  0  0  0  0  0  0  0  0  0  0  0
   -0.3777    2.2514   -0.4070 H   0  0  0  0  0  0  0  0  0  0  0  0
    0.9151    0.3206   -1.0114 H   0  0  0  0  0  0  0  0  0  0  0  0
    2.7964   -0.4080    1.1951 H   0  0  0  0  0  0  0  0  0  0  0  0
    2.0062   -1.5584    0.1038 H   0  0  0  0  0  0  0  0  0  0  0  0
    3.1948   -0.5457   -1.8494 H   0  0  0  0  0  0  0  0  0  0  0  0
    3.8683    0.6965   -0.8100 H   0  0  0  0  0  0  0  0  0  0  0  0
    5.0956   -1.0919    0.5011 H   0  0  0  0  0  0  0  0  0  0  0  0
    6.8452   -1.4352   -1.2279 H   0  0  0  0  0  0  0  0  0  0  0  0
    5.7110   -0.9497   -2.5010 H   0  0  0  0  0  0  0  0  0  0  0  0
    6.2237    0.2222   -1.2705 H   0  0  0  0  0  0  0  0  0  0  0  0
    5.3898   -3.3326   -0.5686 H   0  0  0  0  0  0  0  0  0  0  0  0
    3.7237   -3.0839   -0.0469 H   0  0  0  0  0  0  0  0  0  0  0  0
    4.1419   -2.9322   -1.7634 H   0  0  0  0  0  0  0  0  0  0  0  0
  1  2  1  0
  2  3  1  0
  3  4  2  0
  3  5  1  0
  5  6  1  0
  6  7  2  0
  7  8  1  0
  8  9  2  0
  9 10  1  0
 10 11  2  0
 11 12  1  0
 12 13  1  0
 13 14  1  0
 14 15  2  0
 14 16  1  0
 16 17  1  0
 17 18  1  0
 18 19  1  0
 19 20  1  0
 19 21  1  0
 13  5  1  0
 11  6  1  0
  1 22  1  0
  1 23  1  0
  1 24  1  0
  2 25  1  0
  2 26  1  0
  7 27  1  0
  8 28  1  0
  9 29  1  0
 10 30  1  0
 12 31  1  0
 12 32  1  0
 13 33  1  0
 16 34  1  0
 17 35  1  0
 17 36  1  0
 18 37  1  0
 18 38  1  0
 19 39  1  0
 20 40  1  0
 20 41  1  0
 20 42  1  0
 21 43  1  0
 21 44  1  0
 21 45  1  0
M  END
$$$$
