
     RDKit          3D

 60 63  0  0  0  0  0  0  0  0999 V2000
   -8.5278    1.5268   -0.7677 C   0  0  0  0  0  0  0  0  0  0  0  0
   -7.3950    0.7965   -1.2151 O   0  0  0  0  0  0  0  0  0  0  0  0
   -7.6359   -0.6103   -1.2237 C   0  0  0  0  0  0  0  0  0  0  0  0
   -6.3870   -1.3638   -1.7006 C   0  0  0  0  0  0  0  0  0  0  0  0
   -5.2586   -1.2495   -0.7666 N   0  0  0  0  0  0  0  0  0  0  0  0
   -5.2704   -2.0016    0.3962 C   0  0  0  0  0  0  0  0  0  0  0  0
   -4.3012   -1.9111    1.3120 C   0  0  0  0  0  0  0  0  0  0  0  0
   -3.2019   -0.9836    1.0959 C   0  0  0  0  0  0  0  0  0  0  0  0
   -2.2575   -0.9342    2.0674 N   0  0  0  0  0  0  0  0  0  0  0  0
   -1.2217   -0.0646    1.8979 C   0  0  0  0  0  0  0  0  0  0  0  0
   -0.2091   -0.0282    3.0059 C   0  0  0  0  0  0  0  0  0  0  0  0
   -1.1065    0.7407    0.7598 C   0  0  0  0  0  0  0  0  0  0  0  0
    0.0151    1.6872    0.5986 C   0  0  0  0  0  0  0  0  0  0  0  0
    0.2022    2.5144    1.4861 O   0  0  0  0  0  0  0  0  0  0  0  0
    0.7871    1.6140   -0.5602 N   0  0  0  0  0  0  0  0  0  0  0  0
    1.9078    2.5522   -0.6803 C   0  0  0  0  0  0  0  0  0  0  0  0
    3.2041    1.9184   -0.1385 C   0  0  0  0  0  0  0  0  0  0  0  0
    3.4758    0.6350   -0.8386 N   0  0  0  0  0  0  0  0  0  0  0  0
    4.7230    0.0246   -0.6139 C   0  0  0  0  0  0  0  0  0  0  0  0
    5.1774   -0.9603   -1.5050 C   0  0  0  0  0  0  0  0  0  0  0  0
    6.4117   -1.5922   -1.3324 C   0  0  0  0  0  0  0  0  0  0  0  0
    7.2307   -1.2473   -0.2596 C   0  0  0  0  0  0  0  0  0  0  0  0
    6.8164   -0.2647    0.6353 C   0  0  0  0  0  0  0  0  0  0  0  0
    7.5176    0.1743    1.7265 O   0  0  0  0  0  0  0  0  0  0  0  0
    8.7924   -0.4139    1.9511 C   0  0  0  0  0  0  0  0  0  0  0  0
    5.5752    0.3623    0.4484 C   0  0  0  0  0  0  0  0  0  0  0  0
    2.3349   -0.3183   -0.7835 C   0  0  0  0  0  0  0  0  0  0  0  0
    1.0341    0.3550   -1.2799 C   0  0  0  0  0  0  0  0  0  0  0  0
   -2.0969    0.6773   -0.2246 C   0  0  0  0  0  0  0  0  0  0  0  0
   -3.1587   -0.2075   -0.0527 C   0  0  0  0  0  0  0  0  0  0  0  0
   -4.2290   -0.3462   -1.0645 C   0  0  0  0  0  0  0  0  0  0  0  0
   -4.1440    0.3022   -2.1037 O   0  0  0  0  0  0  0  0  0  0  0  0
   -9.3822    1.3517   -1.4284 H   0  0  0  0  0  0  0  0  0  0  0  0
   -8.2819    2.5918   -0.7891 H   0  0  0  0  0  0  0  0  0  0  0  0
   -8.7821    1.2476    0.2593 H   0  0  0  0  0  0  0  0  0  0  0  0
   -8.4635   -0.8241   -1.9099 H   0  0  0  0  0  0  0  0  0  0  0  0
   -7.9222   -0.9379   -0.2177 H   0  0  0  0  0  0  0  0  0  0  0  0
   -6.6182   -2.4285   -1.8250 H   0  0  0  0  0  0  0  0  0  0  0  0
   -6.0857   -0.9781   -2.6809 H   0  0  0  0  0  0  0  0  0  0  0  0
   -6.1081   -2.6782    0.5408 H   0  0  0  0  0  0  0  0  0  0  0  0
   -4.3046   -2.4955    2.2238 H   0  0  0  0  0  0  0  0  0  0  0  0
   -0.2723    0.9187    3.5501 H   0  0  0  0  0  0  0  0  0  0  0  0
   -0.3916   -0.8377    3.7207 H   0  0  0  0  0  0  0  0  0  0  0  0
    0.8032   -0.1597    2.6110 H   0  0  0  0  0  0  0  0  0  0  0  0
    1.6908    3.4844   -0.1484 H   0  0  0  0  0  0  0  0  0  0  0  0
    2.0198    2.7943   -1.7440 H   0  0  0  0  0  0  0  0  0  0  0  0
    3.0971    1.7433    0.9395 H   0  0  0  0  0  0  0  0  0  0  0  0
    4.0273    2.6235   -0.3038 H   0  0  0  0  0  0  0  0  0  0  0  0
    4.5765   -1.2257   -2.3713 H   0  0  0  0  0  0  0  0  0  0  0  0
    6.7355   -2.3472   -2.0438 H   0  0  0  0  0  0  0  0  0  0  0  0
    8.1822   -1.7567   -0.1560 H   0  0  0  0  0  0  0  0  0  0  0  0
    9.4723   -0.2145    1.1162 H   0  0  0  0  0  0  0  0  0  0  0  0
    8.7031   -1.4886    2.1415 H   0  0  0  0  0  0  0  0  0  0  0  0
    9.2205    0.0478    2.8461 H   0  0  0  0  0  0  0  0  0  0  0  0
    5.2875    1.1165    1.1746 H   0  0  0  0  0  0  0  0  0  0  0  0
    2.5114   -1.2015   -1.4070 H   0  0  0  0  0  0  0  0  0  0  0  0
    2.1992   -0.6588    0.2515 H   0  0  0  0  0  0  0  0  0  0  0  0
    0.2046   -0.3460   -1.1684 H   0  0  0  0  0  0  0  0  0  0  0  0
    1.1229    0.6028   -2.3443 H   0  0  0  0  0  0  0  0  0  0  0  0
   -2.0458    1.3108   -1.1070 H   0  0  0  0  0  0  0  0  0  0  0  0
  1  2  1  0
  2  3  1  0
  3  4  1  0
  4  5  1  0
  5  6  1  0
  6  7  2  0
  7  8  1  0
  8  9  2  0
  9 10  1  0
 10 11  1  0
 10 12  2  0
 12 13  1  0
 13 14  2  0
 13 15  1  0
 15 16  1  0
 16 17  1  0
 17 18  1  0
 18 19  1  0
 19 20  2  0
 20 21  1  0
 21 22  2  0
 22 23  1  0
 23 24  1  0
 24 25  1  0
 23 26  2  0
 18 27  1  0
 27 28  1  0
 12 29  1  0
 29 30  2  0
 30 31  1  0
 31 32  2  0
 31  5  1  0
 30  8  1  0
 28 15  1  0
 26 19  1  0
  1 33  1  0
  1 34  1  0
  1 35  1  0
  3 36  1  0
  3 37  1  0
  4 38  1  0
  4 39  1  0
  6 40  1  0
  7 41  1  0
 11 42  1  0
 11 43  1  0
 11 44  1  0
 16 45  1  0
 16 46  1  0
 17 47  1  0
 17 48  1  0
 20 49  1  0
 21 50  1  0
 22 51  1  0
 25 52  1  0
 25 53  1  0
 25 54  1  0
 26 55  1  0
 27 56  1  0
 27 57  1  0
 28 58  1  0
 28 59  1  0
 29 60  1  0
M  END
$$$$
