
     RDKit          3D

 61 63  0  0  0  0  0  0  0  0999 V2000
    7.4528   -1.0068   -1.8110 C   0  0  0  0  0  0  0  0  0  0  0  0
    7.4367    0.5051   -1.9583 C   0  0  0  0  0  0  0  0  0  0  0  0
    6.0305    1.0840   -2.1042 C   0  0  0  0  0  0  0  0  0  0  0  0
    5.2116    0.8769   -0.9087 N   0  0  0  0  0  0  0  0  0  0  0  0
    5.5159    1.7466    0.2439 C   0  0  0  0  0  0  0  0  0  0  0  0
    6.2232    0.9660    1.3559 C   0  0  0  0  0  0  0  0  0  0  0  0
    6.3489    1.8018    2.6214 C   0  0  0  0  0  0  0  0  0  0  0  0
    4.0944    0.0600   -0.8395 C   0  0  0  0  0  0  0  0  0  0  0  0
    3.3068   -0.0049    0.1950 N   0  0  0  0  0  0  0  0  0  0  0  0
    2.2859   -0.8898   -0.0280 N   0  0  0  0  0  0  0  0  0  0  0  0
    1.2882   -1.0908    0.9077 C   0  0  0  0  0  0  0  0  0  0  0  0
    1.2095   -0.5264    1.9929 O   0  0  0  0  0  0  0  0  0  0  0  0
    0.2530   -2.0540    0.4607 C   0  0  0  0  0  0  0  0  0  0  0  0
   -0.8724   -2.4388    1.3309 C   0  0  0  0  0  0  0  0  0  0  0  0
   -0.6997   -3.0518    2.3764 O   0  0  0  0  0  0  0  0  0  0  0  0
   -2.1015   -2.0439    0.8577 N   0  0  0  0  0  0  0  0  0  0  0  0
   -3.3005   -2.2575    1.6309 C   0  0  0  0  0  0  0  0  0  0  0  0
   -4.3610   -1.2633    1.2387 C   0  0  0  0  0  0  0  0  0  0  0  0
   -4.2631    0.0718    1.6572 C   0  0  0  0  0  0  0  0  0  0  0  0
   -5.2096    1.0245    1.2558 C   0  0  0  0  0  0  0  0  0  0  0  0
   -6.2689    0.6596    0.4283 C   0  0  0  0  0  0  0  0  0  0  0  0
   -7.2487    1.4978   -0.0308 O   0  0  0  0  0  0  0  0  0  0  0  0
   -7.1259    2.9048    0.1709 C   0  0  0  0  0  0  0  0  0  0  0  0
   -6.2031    3.5321   -0.8622 C   0  0  0  0  0  0  0  0  0  0  0  0
   -6.3771   -0.6821    0.0289 C   0  0  0  0  0  0  0  0  0  0  0  0
   -7.3873   -1.0478   -0.8252 O   0  0  0  0  0  0  0  0  0  0  0  0
   -8.3424   -1.8662   -0.1503 C   0  0  0  0  0  0  0  0  0  0  0  0
   -5.4241   -1.6327    0.4089 C   0  0  0  0  0  0  0  0  0  0  0  0
    0.3752   -2.6135   -0.7534 C   0  0  0  0  0  0  0  0  0  0  0  0
    1.3778   -2.3446   -1.6588 N   0  0  0  0  0  0  0  0  0  0  0  0
    2.2725   -1.5067   -1.2461 C   0  0  0  0  0  0  0  0  0  0  0  0
    3.6293   -0.9850   -2.1789 S   0  0  0  0  0  0  0  0  0  0  0  0
    6.9548   -1.4900   -2.6582 H   0  0  0  0  0  0  0  0  0  0  0  0
    6.9614   -1.3358   -0.8885 H   0  0  0  0  0  0  0  0  0  0  0  0
    8.4829   -1.3676   -1.7785 H   0  0  0  0  0  0  0  0  0  0  0  0
    7.9616    0.9660   -1.1116 H   0  0  0  0  0  0  0  0  0  0  0  0
    8.0085    0.7726   -2.8549 H   0  0  0  0  0  0  0  0  0  0  0  0
    6.1132    2.1594   -2.2994 H   0  0  0  0  0  0  0  0  0  0  0  0
    5.5712    0.6710   -3.0047 H   0  0  0  0  0  0  0  0  0  0  0  0
    4.5852    2.1839    0.6244 H   0  0  0  0  0  0  0  0  0  0  0  0
    6.1322    2.5992   -0.0637 H   0  0  0  0  0  0  0  0  0  0  0  0
    7.2240    0.6654    1.0309 H   0  0  0  0  0  0  0  0  0  0  0  0
    5.6772    0.0462    1.5975 H   0  0  0  0  0  0  0  0  0  0  0  0
    6.8586    2.7503    2.4163 H   0  0  0  0  0  0  0  0  0  0  0  0
    5.3596    2.0200    3.0399 H   0  0  0  0  0  0  0  0  0  0  0  0
    6.9283    1.2600    3.3766 H   0  0  0  0  0  0  0  0  0  0  0  0
   -2.1858   -1.5839   -0.0419 H   0  0  0  0  0  0  0  0  0  0  0  0
   -3.0774   -2.1712    2.6985 H   0  0  0  0  0  0  0  0  0  0  0  0
   -3.6353   -3.2864    1.4522 H   0  0  0  0  0  0  0  0  0  0  0  0
   -3.4261    0.3838    2.2811 H   0  0  0  0  0  0  0  0  0  0  0  0
   -5.0716    2.0448    1.5986 H   0  0  0  0  0  0  0  0  0  0  0  0
   -6.8365    3.1586    1.1976 H   0  0  0  0  0  0  0  0  0  0  0  0
   -8.1298    3.3163    0.0299 H   0  0  0  0  0  0  0  0  0  0  0  0
   -6.2302    4.6255   -0.7874 H   0  0  0  0  0  0  0  0  0  0  0  0
   -6.4978    3.2355   -1.8748 H   0  0  0  0  0  0  0  0  0  0  0  0
   -5.1661    3.2020   -0.7276 H   0  0  0  0  0  0  0  0  0  0  0  0
   -7.9943   -2.9059   -0.1139 H   0  0  0  0  0  0  0  0  0  0  0  0
   -9.2680   -1.8415   -0.7299 H   0  0  0  0  0  0  0  0  0  0  0  0
   -8.5663   -1.5009    0.8600 H   0  0  0  0  0  0  0  0  0  0  0  0
   -5.5072   -2.6492    0.0393 H   0  0  0  0  0  0  0  0  0  0  0  0
   -0.3530   -3.3524   -1.0876 H   0  0  0  0  0  0  0  0  0  0  0  0
  1  2  1  0
  2  3  1  0
  3  4  1  0
  4  5  1  0
  5  6  1  0
  6  7  1  0
  4  8  1  0
  8  9  2  0
  9 10  1  0
 10 11  1  0
 11 12  2  0
 11 13  1  0
 13 14  1  0
 14 15  2  0
 14 16  1  0
 16 17  1  0
 17 18  1  0
 18 19  2  0
 19 20  1  0
 20 21  2  0
 21 22  1  0
 22 23  1  0
 23 24  1  0
 21 25  1  0
 25 26  1  0
 26 27  1  0
 25 28  2  0
 13 29  2  0
 29 30  1  0
 30 31  2  0
 31 32  1  0
 32  8  1  0
 31 10  1  0
 28 18  1  0
  1 33  1  0
  1 34  1  0
  1 35  1  0
  2 36  1  0
  2 37  1  0
  3 38  1  0
  3 39  1  0
  5 40  1  0
  5 41  1  0
  6 42  1  0
  6 43  1  0
  7 44  1  0
  7 45  1  0
  7 46  1  0
 16 47  1  0
 17 48  1  0
 17 49  1  0
 19 50  1  0
 20 51  1  0
 23 52  1  0
 23 53  1  0
 24 54  1  0
 24 55  1  0
 24 56  1  0
 27 57  1  0
 27 58  1  0
 27 59  1  0
 28 60  1  0
 29 61  1  0
M  END
$$$$
