
     RDKit          3D

 47 48  0  0  0  0  0  0  0  0999 V2000
   -4.9291   -1.9751    3.2527 C   0  0  0  0  0  0  0  0  0  0  0  0
   -4.2093   -0.6429    3.1388 C   0  0  0  0  0  0  0  0  0  0  0  0
   -4.2323   -0.2402    1.7637 O   0  0  0  0  0  0  0  0  0  0  0  0
   -2.9942    0.1349    1.3090 C   0  0  0  0  0  0  0  0  0  0  0  0
   -2.0030   -0.8288    1.1247 C   0  0  0  0  0  0  0  0  0  0  0  0
   -0.7642   -0.4664    0.5937 C   0  0  0  0  0  0  0  0  0  0  0  0
   -0.5086    0.8583    0.2181 C   0  0  0  0  0  0  0  0  0  0  0  0
    0.8116    1.3233   -0.3666 C   0  0  0  0  0  0  0  0  0  0  0  0
    1.7826    0.2528   -0.8836 C   0  0  0  0  0  0  0  0  0  0  0  0
    2.5275   -0.3498    0.2436 N   0  0  0  0  0  0  0  0  0  0  0  0
    3.1923   -1.8822   -0.0224 S   0  0  0  0  0  6  0  0  0  0  0  0
    2.1589   -2.7623   -0.5276 O   0  0  0  0  0  0  0  0  0  0  0  0
    3.9929   -2.2073    1.1364 O   0  0  0  0  0  0  0  0  0  0  0  0
    4.3506   -1.7699   -1.3212 C   0  0  0  0  0  0  0  0  0  0  0  0
    4.8803   -2.8278   -2.0334 C   0  0  0  0  0  0  0  0  0  0  0  0
    5.7177   -2.2512   -2.9436 N   0  0  0  0  0  0  0  0  0  0  0  0
    6.4975   -2.9498   -3.9333 C   0  0  0  0  0  0  0  0  0  0  0  0
    5.6784   -0.8973   -2.7589 C   0  0  0  0  0  0  0  0  0  0  0  0
    4.8606   -0.5646   -1.7843 N   0  0  0  0  0  0  0  0  0  0  0  0
   -1.5240    1.8189    0.4077 C   0  0  0  0  0  0  0  0  0  0  0  0
   -2.7722    1.4646    0.9353 C   0  0  0  0  0  0  0  0  0  0  0  0
   -3.8032    2.3396    1.1549 O   0  0  0  0  0  0  0  0  0  0  0  0
   -3.7736    3.5643    0.4250 C   0  0  0  0  0  0  0  0  0  0  0  0
   -5.1078    4.2586    0.6284 C   0  0  0  0  0  0  0  0  0  0  0  0
   -5.9402   -1.9054    2.8375 H   0  0  0  0  0  0  0  0  0  0  0  0
   -4.9968   -2.2996    4.2948 H   0  0  0  0  0  0  0  0  0  0  0  0
   -4.4028   -2.7446    2.6788 H   0  0  0  0  0  0  0  0  0  0  0  0
   -3.1970   -0.7234    3.5564 H   0  0  0  0  0  0  0  0  0  0  0  0
   -4.7476    0.1159    3.7175 H   0  0  0  0  0  0  0  0  0  0  0  0
   -2.1911   -1.8636    1.3860 H   0  0  0  0  0  0  0  0  0  0  0  0
   -0.0136   -1.2436    0.4802 H   0  0  0  0  0  0  0  0  0  0  0  0
    1.3141    1.9465    0.3820 H   0  0  0  0  0  0  0  0  0  0  0  0
    0.5734    1.9723   -1.2192 H   0  0  0  0  0  0  0  0  0  0  0  0
    1.2430   -0.5018   -1.4644 H   0  0  0  0  0  0  0  0  0  0  0  0
    2.5082    0.7389   -1.5448 H   0  0  0  0  0  0  0  0  0  0  0  0
    3.2478    0.2645    0.6296 H   0  0  0  0  0  0  0  0  0  0  0  0
    4.7217   -3.8947   -1.9600 H   0  0  0  0  0  0  0  0  0  0  0  0
    6.8075   -2.2501   -4.7119 H   0  0  0  0  0  0  0  0  0  0  0  0
    7.3730   -3.3806   -3.4404 H   0  0  0  0  0  0  0  0  0  0  0  0
    5.8787   -3.7397   -4.3729 H   0  0  0  0  0  0  0  0  0  0  0  0
    6.2558   -0.2076   -3.3635 H   0  0  0  0  0  0  0  0  0  0  0  0
   -1.3113    2.8507    0.1379 H   0  0  0  0  0  0  0  0  0  0  0  0
   -3.6274    3.3736   -0.6462 H   0  0  0  0  0  0  0  0  0  0  0  0
   -2.9747    4.2132    0.8041 H   0  0  0  0  0  0  0  0  0  0  0  0
   -5.2708    4.4762    1.6894 H   0  0  0  0  0  0  0  0  0  0  0  0
   -5.9329    3.6147    0.3048 H   0  0  0  0  0  0  0  0  0  0  0  0
   -5.1465    5.1965    0.0671 H   0  0  0  0  0  0  0  0  0  0  0  0
  1  2  1  0
  2  3  1  0
  3  4  1  0
  4  5  2  0
  5  6  1  0
  6  7  2  0
  7  8  1  0
  8  9  1  0
  9 10  1  0
 10 11  1  0
 11 12  2  0
 11 13  2  0
 11 14  1  0
 14 15  2  0
 15 16  1  0
 16 17  1  0
 16 18  1  0
 18 19  2  0
  7 20  1  0
 20 21  2  0
 21 22  1  0
 22 23  1  0
 23 24  1  0
 21  4  1  0
 19 14  1  0
  1 25  1  0
  1 26  1  0
  1 27  1  0
  2 28  1  0
  2 29  1  0
  5 30  1  0
  6 31  1  0
  8 32  1  0
  8 33  1  0
  9 34  1  0
  9 35  1  0
 10 36  1  0
 15 37  1  0
 17 38  1  0
 17 39  1  0
 17 40  1  0
 18 41  1  0
 20 42  1  0
 23 43  1  0
 23 44  1  0
 24 45  1  0
 24 46  1  0
 24 47  1  0
M  END
$$$$
