
     RDKit          3D

 46 48  0  0  0  0  0  0  0  0999 V2000
    7.8153    1.2265   -0.9330 C   0  0  0  0  0  0  0  0  0  0  0  0
    6.4277    1.3820   -1.5394 C   0  0  0  0  0  0  0  0  0  0  0  0
    5.3705    0.7102   -0.7026 C   0  0  0  0  0  0  0  0  0  0  0  0
    4.7386    1.4053    0.3372 C   0  0  0  0  0  0  0  0  0  0  0  0
    3.7756    0.7751    1.1267 C   0  0  0  0  0  0  0  0  0  0  0  0
    3.4321   -0.5644    0.8998 C   0  0  0  0  0  0  0  0  0  0  0  0
    2.3730   -1.2299    1.7362 C   0  0  0  0  0  0  0  0  0  0  0  0
    1.0710   -1.0788    1.1269 N   0  0  0  0  0  0  0  0  0  0  0  0
   -0.0443   -1.5967    1.7497 C   0  0  0  0  0  0  0  0  0  0  0  0
    0.0034   -2.2648    2.7754 O   0  0  0  0  0  0  0  0  0  0  0  0
   -1.3499   -1.2762    1.1523 C   0  0  0  0  0  0  0  0  0  0  0  0
   -2.4862   -1.2599    1.9224 C   0  0  0  0  0  0  0  0  0  0  0  0
   -3.7132   -0.9528    1.4410 N   0  0  0  0  0  0  0  0  0  0  0  0
   -3.8245   -0.6688    0.1323 C   0  0  0  0  0  0  0  0  0  0  0  0
   -5.0684   -0.3716   -0.3835 N   0  0  0  0  0  0  0  0  0  0  0  0
   -5.1215    0.1248   -1.7609 C   0  0  0  0  0  0  0  0  0  0  0  0
   -6.5754    0.4544   -2.1338 C   0  0  0  0  0  0  0  0  0  0  0  0
   -7.1627    1.4640   -1.2983 O   0  0  0  0  0  0  0  0  0  0  0  0
   -6.6413    1.4727    0.0413 C   0  0  0  0  0  0  0  0  0  0  0  0
   -6.1168    0.1090    0.5234 C   0  0  0  0  0  0  0  0  0  0  0  0
   -2.7631   -0.6901   -0.6983 N   0  0  0  0  0  0  0  0  0  0  0  0
   -1.5537   -0.9977   -0.1758 C   0  0  0  0  0  0  0  0  0  0  0  0
    4.0555   -1.2555   -0.1465 C   0  0  0  0  0  0  0  0  0  0  0  0
    5.0214   -0.6259   -0.9362 C   0  0  0  0  0  0  0  0  0  0  0  0
    7.8780    1.6836    0.0592 H   0  0  0  0  0  0  0  0  0  0  0  0
    8.0886    0.1705   -0.8310 H   0  0  0  0  0  0  0  0  0  0  0  0
    8.5605    1.7055   -1.5763 H   0  0  0  0  0  0  0  0  0  0  0  0
    6.1876    2.4477   -1.6508 H   0  0  0  0  0  0  0  0  0  0  0  0
    6.4215    0.9604   -2.5528 H   0  0  0  0  0  0  0  0  0  0  0  0
    5.0029    2.4396    0.5436 H   0  0  0  0  0  0  0  0  0  0  0  0
    3.2971    1.3372    1.9271 H   0  0  0  0  0  0  0  0  0  0  0  0
    2.5843   -2.2969    1.8657 H   0  0  0  0  0  0  0  0  0  0  0  0
    2.3398   -0.7890    2.7394 H   0  0  0  0  0  0  0  0  0  0  0  0
    0.9792   -0.3602    0.4202 H   0  0  0  0  0  0  0  0  0  0  0  0
   -2.4550   -1.4900    2.9844 H   0  0  0  0  0  0  0  0  0  0  0  0
   -4.5128    1.0334   -1.8567 H   0  0  0  0  0  0  0  0  0  0  0  0
   -4.7413   -0.6323   -2.4566 H   0  0  0  0  0  0  0  0  0  0  0  0
   -6.6303    0.8108   -3.1680 H   0  0  0  0  0  0  0  0  0  0  0  0
   -7.2038   -0.4417   -2.0620 H   0  0  0  0  0  0  0  0  0  0  0  0
   -7.4420    1.8211    0.7009 H   0  0  0  0  0  0  0  0  0  0  0  0
   -5.8395    2.2198    0.0773 H   0  0  0  0  0  0  0  0  0  0  0  0
   -6.9367   -0.6213    0.5120 H   0  0  0  0  0  0  0  0  0  0  0  0
   -5.7854    0.2146    1.5645 H   0  0  0  0  0  0  0  0  0  0  0  0
   -0.7497   -1.0268   -0.9033 H   0  0  0  0  0  0  0  0  0  0  0  0
    3.7924   -2.2912   -0.3535 H   0  0  0  0  0  0  0  0  0  0  0  0
    5.5012   -1.1858   -1.7357 H   0  0  0  0  0  0  0  0  0  0  0  0
  1  2  1  0
  2  3  1  0
  3  4  2  0
  4  5  1  0
  5  6  2  0
  6  7  1  0
  7  8  1  0
  8  9  1  0
  9 10  2  0
  9 11  1  0
 11 12  2  0
 12 13  1  0
 13 14  2  0
 14 15  1  0
 15 16  1  0
 16 17  1  0
 17 18  1  0
 18 19  1  0
 19 20  1  0
 14 21  1  0
 21 22  2  0
  6 23  1  0
 23 24  2  0
 24  3  1  0
 22 11  1  0
 20 15  1  0
  1 25  1  0
  1 26  1  0
  1 27  1  0
  2 28  1  0
  2 29  1  0
  4 30  1  0
  5 31  1  0
  7 32  1  0
  7 33  1  0
  8 34  1  0
 12 35  1  0
 16 36  1  0
 16 37  1  0
 17 38  1  0
 17 39  1  0
 19 40  1  0
 19 41  1  0
 20 42  1  0
 20 43  1  0
 22 44  1  0
 23 45  1  0
 24 46  1  0
M  END
$$$$
