
     RDKit          3D

 61 64  0  0  0  0  0  0  0  0999 V2000
   -3.4012    2.1669   -1.7636 C   0  0  0  0  0  0  0  0  0  0  0  0
   -1.9252    2.4266   -1.5794 C   0  0  0  0  0  0  0  0  0  0  0  0
   -1.4100    3.3832   -2.1604 O   0  0  0  0  0  0  0  0  0  0  0  0
   -1.2553    1.5623   -0.7315 N   0  0  0  0  0  0  0  0  0  0  0  0
    0.1091    1.6508   -0.3915 C   0  0  0  0  0  0  0  0  0  0  0  0
    1.0862    2.4911   -0.9044 C   0  0  0  0  0  0  0  0  0  0  0  0
    2.3895    2.3934   -0.4045 C   0  0  0  0  0  0  0  0  0  0  0  0
    2.6883    1.4558    0.5968 C   0  0  0  0  0  0  0  0  0  0  0  0
    4.3422    1.3233    1.2320 S   0  0  0  0  0  6  0  0  0  0  0  0
    4.2407    1.2860    2.6761 O   0  0  0  0  0  0  0  0  0  0  0  0
    5.1824    2.2943    0.5623 O   0  0  0  0  0  0  0  0  0  0  0  0
    4.8175   -0.2264    0.6906 N   0  0  0  0  0  0  0  0  0  0  0  0
    4.8941   -0.4128   -0.7881 C   0  0  0  0  0  0  0  0  0  0  0  0
    6.3242   -0.6381   -1.2590 C   0  0  0  0  0  0  0  0  0  0  0  0
    6.9481   -1.8675   -0.6028 C   0  0  0  0  0  0  0  0  0  0  0  0
    6.4314   -2.0939    0.8160 C   0  0  0  0  0  0  0  0  0  0  0  0
    5.9628   -0.7926    1.4538 C   0  0  0  0  0  0  0  0  0  0  0  0
    1.6987    0.6226    1.1281 C   0  0  0  0  0  0  0  0  0  0  0  0
    0.4148    0.7339    0.6158 C   0  0  0  0  0  0  0  0  0  0  0  0
   -0.8023   -0.0103    1.0616 C   0  0  0  0  0  0  0  0  0  0  0  0
   -1.8572    0.4307    0.0261 C   0  0  0  0  0  0  0  0  0  0  0  0
   -2.1931   -0.7702   -0.8931 C   0  0  0  0  0  0  0  0  0  0  0  0
   -1.7056   -0.8577   -2.0230 O   0  0  0  0  0  0  0  0  0  0  0  0
   -3.0345   -1.7660   -0.3940 N   0  0  0  0  0  0  0  0  0  0  0  0
   -3.2791   -2.9526   -1.2060 C   0  0  0  0  0  0  0  0  0  0  0  0
   -3.7493   -1.6986    0.8819 C   0  0  0  0  0  0  0  0  0  0  0  0
   -4.9076   -0.7261    0.9039 C   0  0  0  0  0  0  0  0  0  0  0  0
   -5.2331   -0.0786    2.1067 C   0  0  0  0  0  0  0  0  0  0  0  0
   -6.3018    0.8174    2.1695 C   0  0  0  0  0  0  0  0  0  0  0  0
   -7.0679    1.0692    1.0344 C   0  0  0  0  0  0  0  0  0  0  0  0
   -6.7699    0.4219   -0.1614 C   0  0  0  0  0  0  0  0  0  0  0  0
   -5.7018   -0.4752   -0.2255 C   0  0  0  0  0  0  0  0  0  0  0  0
   -3.5659    1.2014   -2.2461 H   0  0  0  0  0  0  0  0  0  0  0  0
   -3.8248    2.9423   -2.4109 H   0  0  0  0  0  0  0  0  0  0  0  0
   -3.9198    2.2150   -0.8038 H   0  0  0  0  0  0  0  0  0  0  0  0
    0.8681    3.2132   -1.6847 H   0  0  0  0  0  0  0  0  0  0  0  0
    3.1630    3.0479   -0.8017 H   0  0  0  0  0  0  0  0  0  0  0  0
    4.4759    0.4455   -1.3231 H   0  0  0  0  0  0  0  0  0  0  0  0
    4.2674   -1.2744   -1.0483 H   0  0  0  0  0  0  0  0  0  0  0  0
    6.9290    0.2463   -1.0198 H   0  0  0  0  0  0  0  0  0  0  0  0
    6.3521   -0.7504   -2.3492 H   0  0  0  0  0  0  0  0  0  0  0  0
    6.7405   -2.7609   -1.2042 H   0  0  0  0  0  0  0  0  0  0  0  0
    8.0386   -1.7496   -0.5921 H   0  0  0  0  0  0  0  0  0  0  0  0
    7.2155   -2.5568    1.4254 H   0  0  0  0  0  0  0  0  0  0  0  0
    5.5956   -2.8047    0.7856 H   0  0  0  0  0  0  0  0  0  0  0  0
    5.6345   -1.0032    2.4776 H   0  0  0  0  0  0  0  0  0  0  0  0
    6.7884   -0.0727    1.4972 H   0  0  0  0  0  0  0  0  0  0  0  0
    1.9317   -0.0835    1.9200 H   0  0  0  0  0  0  0  0  0  0  0  0
   -1.0885    0.3245    2.0638 H   0  0  0  0  0  0  0  0  0  0  0  0
   -0.6243   -1.0893    1.0737 H   0  0  0  0  0  0  0  0  0  0  0  0
   -2.7609    0.7975    0.5144 H   0  0  0  0  0  0  0  0  0  0  0  0
   -2.7328   -2.9341   -2.1502 H   0  0  0  0  0  0  0  0  0  0  0  0
   -4.3485   -3.0297   -1.4189 H   0  0  0  0  0  0  0  0  0  0  0  0
   -2.9613   -3.8335   -0.6401 H   0  0  0  0  0  0  0  0  0  0  0  0
   -4.1220   -2.6978    1.1389 H   0  0  0  0  0  0  0  0  0  0  0  0
   -3.0242   -1.4215    1.6532 H   0  0  0  0  0  0  0  0  0  0  0  0
   -4.6539   -0.2632    3.0096 H   0  0  0  0  0  0  0  0  0  0  0  0
   -6.5395    1.3163    3.1060 H   0  0  0  0  0  0  0  0  0  0  0  0
   -7.9009    1.7659    1.0830 H   0  0  0  0  0  0  0  0  0  0  0  0
   -7.3724    0.6126   -1.0468 H   0  0  0  0  0  0  0  0  0  0  0  0
   -5.4960   -0.9659   -1.1746 H   0  0  0  0  0  0  0  0  0  0  0  0
  1  2  1  0
  2  3  2  0
  2  4  1  0
  4  5  1  0
  5  6  2  0
  6  7  1  0
  7  8  2  0
  8  9  1  0
  9 10  2  0
  9 11  2  0
  9 12  1  0
 12 13  1  0
 13 14  1  0
 14 15  1  0
 15 16  1  0
 16 17  1  0
  8 18  1  0
 18 19  2  0
 19 20  1  0
 20 21  1  0
 21 22  1  0
 22 23  2  0
 22 24  1  0
 24 25  1  0
 24 26  1  0
 26 27  1  0
 27 28  2  0
 28 29  1  0
 29 30  2  0
 30 31  1  0
 31 32  2  0
 21  4  1  0
 32 27  1  0
 19  5  1  0
 17 12  1  0
  1 33  1  0
  1 34  1  0
  1 35  1  0
  6 36  1  0
  7 37  1  0
 13 38  1  0
 13 39  1  0
 14 40  1  0
 14 41  1  0
 15 42  1  0
 15 43  1  0
 16 44  1  0
 16 45  1  0
 17 46  1  0
 17 47  1  0
 18 48  1  0
 20 49  1  0
 20 50  1  0
 21 51  1  0
 25 52  1  0
 25 53  1  0
 25 54  1  0
 26 55  1  0
 26 56  1  0
 28 57  1  0
 29 58  1  0
 30 59  1  0
 31 60  1  0
 32 61  1  0
M  END
$$$$
