
     RDKit          3D

 55 57  0  0  0  0  0  0  0  0999 V2000
    5.0766   -3.8463   -0.8527 C   0  0  0  0  0  0  0  0  0  0  0  0
    5.1927   -2.5013   -1.2986 O   0  0  0  0  0  0  0  0  0  0  0  0
    5.1137   -1.5252   -0.3442 C   0  0  0  0  0  0  0  0  0  0  0  0
    5.2505   -0.2231   -0.8267 C   0  0  0  0  0  0  0  0  0  0  0  0
    5.1872    0.8717    0.0395 C   0  0  0  0  0  0  0  0  0  0  0  0
    4.9695    0.6822    1.4086 C   0  0  0  0  0  0  0  0  0  0  0  0
    4.8949    1.8519    2.3645 C   0  0  0  0  0  0  0  0  0  0  0  0
    3.9162    2.9673    1.9682 C   0  0  0  0  0  0  0  0  0  0  0  0
    2.5663    2.4712    1.7656 N   0  0  0  0  0  0  0  0  0  0  0  0
    1.9940    2.4089    0.5124 C   0  0  0  0  0  0  0  0  0  0  0  0
    2.4996    2.8921   -0.4943 O   0  0  0  0  0  0  0  0  0  0  0  0
    0.6815    1.6613    0.5031 C   0  0  0  0  0  0  0  0  0  0  0  0
    0.0806    1.6313   -0.8990 C   0  0  0  0  0  0  0  0  0  0  0  0
   -1.1081    0.7851   -0.9556 N   0  0  0  0  0  0  0  0  0  0  0  0
   -0.9978   -0.5190   -1.3760 C   0  0  0  0  0  0  0  0  0  0  0  0
   -1.9725   -1.3622   -1.4349 N   0  0  0  0  0  0  0  0  0  0  0  0
   -3.2443   -0.9156   -1.0480 C   0  0  0  0  0  0  0  0  0  0  0  0
   -4.3195   -1.8036   -1.1252 C   0  0  0  0  0  0  0  0  0  0  0  0
   -5.6073   -1.4052   -0.7446 C   0  0  0  0  0  0  0  0  0  0  0  0
   -6.7141   -2.2171   -0.7904 O   0  0  0  0  0  0  0  0  0  0  0  0
   -6.5358   -3.5489   -1.2529 C   0  0  0  0  0  0  0  0  0  0  0  0
   -5.8240   -0.0908   -0.2778 C   0  0  0  0  0  0  0  0  0  0  0  0
   -7.1135    0.2189    0.0765 O   0  0  0  0  0  0  0  0  0  0  0  0
   -7.3749    1.5398    0.5303 C   0  0  0  0  0  0  0  0  0  0  0  0
   -4.7501    0.7990   -0.2000 C   0  0  0  0  0  0  0  0  0  0  0  0
   -3.4725    0.3786   -0.5859 C   0  0  0  0  0  0  0  0  0  0  0  0
   -2.3186    1.2952   -0.5087 C   0  0  0  0  0  0  0  0  0  0  0  0
   -2.4608    2.4252   -0.0494 O   0  0  0  0  0  0  0  0  0  0  0  0
    4.8480   -0.6287    1.8904 C   0  0  0  0  0  0  0  0  0  0  0  0
    4.9157   -1.7243    1.0209 C   0  0  0  0  0  0  0  0  0  0  0  0
    5.1672   -4.4975   -1.7272 H   0  0  0  0  0  0  0  0  0  0  0  0
    4.0952   -4.0290   -0.4025 H   0  0  0  0  0  0  0  0  0  0  0  0
    5.8844   -4.1046   -0.1600 H   0  0  0  0  0  0  0  0  0  0  0  0
    5.4075   -0.0555   -1.8895 H   0  0  0  0  0  0  0  0  0  0  0  0
    5.2938    1.8719   -0.3755 H   0  0  0  0  0  0  0  0  0  0  0  0
    4.6050    1.4852    3.3578 H   0  0  0  0  0  0  0  0  0  0  0  0
    5.9014    2.2740    2.4728 H   0  0  0  0  0  0  0  0  0  0  0  0
    4.2662    3.4895    1.0718 H   0  0  0  0  0  0  0  0  0  0  0  0
    3.8636    3.7044    2.7766 H   0  0  0  0  0  0  0  0  0  0  0  0
    2.0975    2.0253    2.5435 H   0  0  0  0  0  0  0  0  0  0  0  0
   -0.0065    2.1437    1.2069 H   0  0  0  0  0  0  0  0  0  0  0  0
    0.8650    0.6393    0.8567 H   0  0  0  0  0  0  0  0  0  0  0  0
   -0.1922    2.6467   -1.2122 H   0  0  0  0  0  0  0  0  0  0  0  0
    0.8152    1.2546   -1.6212 H   0  0  0  0  0  0  0  0  0  0  0  0
    0.0178   -0.8257   -1.6745 H   0  0  0  0  0  0  0  0  0  0  0  0
   -4.1151   -2.8046   -1.4899 H   0  0  0  0  0  0  0  0  0  0  0  0
   -7.5093   -4.0476   -1.2204 H   0  0  0  0  0  0  0  0  0  0  0  0
   -6.1898   -3.5633   -2.2917 H   0  0  0  0  0  0  0  0  0  0  0  0
   -5.8560   -4.1059   -0.5999 H   0  0  0  0  0  0  0  0  0  0  0  0
   -8.4432    1.6105    0.7560 H   0  0  0  0  0  0  0  0  0  0  0  0
   -6.8256    1.7559    1.4524 H   0  0  0  0  0  0  0  0  0  0  0  0
   -7.1499    2.2767   -0.2480 H   0  0  0  0  0  0  0  0  0  0  0  0
   -4.8745    1.8175    0.1535 H   0  0  0  0  0  0  0  0  0  0  0  0
    4.6974   -0.8126    2.9520 H   0  0  0  0  0  0  0  0  0  0  0  0
    4.8117   -2.7175    1.4442 H   0  0  0  0  0  0  0  0  0  0  0  0
  1  2  1  0
  2  3  1  0
  3  4  2  0
  4  5  1  0
  5  6  2  0
  6  7  1  0
  7  8  1  0
  8  9  1  0
  9 10  1  0
 10 11  2  0
 10 12  1  0
 12 13  1  0
 13 14  1  0
 14 15  1  0
 15 16  2  0
 16 17  1  0
 17 18  2  0
 18 19  1  0
 19 20  1  0
 20 21  1  0
 19 22  2  0
 22 23  1  0
 23 24  1  0
 22 25  1  0
 25 26  2  0
 26 27  1  0
 27 28  2  0
  6 29  1  0
 29 30  2  0
 30  3  1  0
 27 14  1  0
 26 17  1  0
  1 31  1  0
  1 32  1  0
  1 33  1  0
  4 34  1  0
  5 35  1  0
  7 36  1  0
  7 37  1  0
  8 38  1  0
  8 39  1  0
  9 40  1  0
 12 41  1  0
 12 42  1  0
 13 43  1  0
 13 44  1  0
 15 45  1  0
 18 46  1  0
 21 47  1  0
 21 48  1  0
 21 49  1  0
 24 50  1  0
 24 51  1  0
 24 52  1  0
 25 53  1  0
 29 54  1  0
 30 55  1  0
M  END
$$$$
