
     RDKit          3D

 31 33  0  0  0  0  0  0  0  0999 V2000
    0.4491    0.2507   -0.7592 O   0  0  0  0  0  0  0  0  0  0  0  0
    0.4831   -0.3501    0.3109 C   0  0  0  0  0  0  0  0  0  0  0  0
   -0.7879   -0.7784    1.0566 C   0  0  0  0  0  0  0  0  0  0  0  0
   -1.9264   -0.8767    0.1847 N   0  0  0  0  0  0  0  0  0  0  0  0
   -2.2911   -2.0098   -0.5095 C   0  0  0  0  0  0  0  0  0  0  0  0
   -1.7478   -3.1034   -0.4229 O   0  0  0  0  0  0  0  0  0  0  0  0
   -3.3929   -1.7616   -1.3386 O   0  0  0  0  0  0  0  0  0  0  0  0
   -3.6241   -0.4113   -1.1286 C   0  0  0  0  0  0  0  0  0  0  0  0
   -4.6049    0.3360   -1.7447 C   0  0  0  0  0  0  0  0  0  0  0  0
   -4.6768    1.6938   -1.4194 C   0  0  0  0  0  0  0  0  0  0  0  0
   -3.7737    2.2633   -0.4994 C   0  0  0  0  0  0  0  0  0  0  0  0
   -2.7868    1.4843    0.1136 C   0  0  0  0  0  0  0  0  0  0  0  0
   -2.7455    0.1487   -0.2221 C   0  0  0  0  0  0  0  0  0  0  0  0
    1.6273   -0.6597    1.0165 N   0  0  0  0  0  0  0  0  0  0  0  0
    2.9536   -0.4110    0.6666 C   0  0  0  0  0  0  0  0  0  0  0  0
    3.3559    0.2153   -0.5065 C   0  0  0  0  0  0  0  0  0  0  0  0
    4.7205    0.4045   -0.7398 C   0  0  0  0  0  0  0  0  0  0  0  0
    5.6379   -0.0363    0.2023 C   0  0  0  0  0  0  0  0  0  0  0  0
    7.3216    0.1755   -0.0429 Cl  0  0  0  0  0  0  0  0  0  0  0  0
    5.1530   -0.6504    1.3439 C   0  0  0  0  0  0  0  0  0  0  0  0
    3.8337   -0.8454    1.5958 N   0  0  0  0  0  0  0  0  0  0  0  0
   -0.9923   -0.0585    1.8560 H   0  0  0  0  0  0  0  0  0  0  0  0
   -0.6156   -1.7611    1.5107 H   0  0  0  0  0  0  0  0  0  0  0  0
   -5.2884   -0.1110   -2.4574 H   0  0  0  0  0  0  0  0  0  0  0  0
   -5.4336    2.3207   -1.8866 H   0  0  0  0  0  0  0  0  0  0  0  0
   -3.8432    3.3246   -0.2694 H   0  0  0  0  0  0  0  0  0  0  0  0
   -2.0871    1.9276    0.8112 H   0  0  0  0  0  0  0  0  0  0  0  0
    1.5592   -1.1543    1.8965 H   0  0  0  0  0  0  0  0  0  0  0  0
    2.6481    0.5594   -1.2515 H   0  0  0  0  0  0  0  0  0  0  0  0
    5.0498    0.8909   -1.6536 H   0  0  0  0  0  0  0  0  0  0  0  0
    5.8253   -1.0162    2.1147 H   0  0  0  0  0  0  0  0  0  0  0  0
  1  2  2  0
  2  3  1  0
  3  4  1  0
  4  5  1  0
  5  6  2  0
  5  7  1  0
  7  8  1  0
  8  9  2  0
  9 10  1  0
 10 11  2  0
 11 12  1  0
 12 13  2  0
  2 14  1  0
 14 15  1  0
 15 16  2  0
 16 17  1  0
 17 18  2  0
 18 19  1  0
 18 20  1  0
 20 21  2  0
 13  4  1  0
 21 15  1  0
 13  8  1  0
  3 22  1  0
  3 23  1  0
  9 24  1  0
 10 25  1  0
 11 26  1  0
 12 27  1  0
 14 28  1  0
 16 29  1  0
 17 30  1  0
 20 31  1  0
M  END
$$$$
