
     RDKit          3D

 58 61  0  0  0  0  0  0  0  0999 V2000
    7.1824    3.0803    1.2021 C   0  0  0  0  0  0  0  0  0  0  0  0
    6.6932    2.6437   -0.1681 C   0  0  0  0  0  0  0  0  0  0  0  0
    6.4784    1.2338   -0.2077 O   0  0  0  0  0  0  0  0  0  0  0  0
    5.2699    0.7333    0.1857 C   0  0  0  0  0  0  0  0  0  0  0  0
    5.1607   -0.6578    0.0757 C   0  0  0  0  0  0  0  0  0  0  0  0
    3.9854   -1.3161    0.4428 C   0  0  0  0  0  0  0  0  0  0  0  0
    2.9013   -0.5709    0.9077 C   0  0  0  0  0  0  0  0  0  0  0  0
    1.4032   -1.3994    1.4063 S   0  0  0  0  0  6  0  0  0  0  0  0
    0.7058   -0.5148    2.3147 O   0  0  0  0  0  0  0  0  0  0  0  0
    1.7638   -2.7456    1.7995 O   0  0  0  0  0  0  0  0  0  0  0  0
    0.5194   -1.4876   -0.0441 N   0  0  0  0  0  0  0  0  0  0  0  0
    0.9778   -2.4396   -1.0752 C   0  0  0  0  0  0  0  0  0  0  0  0
   -0.1755   -3.3600   -1.4737 C   0  0  0  0  0  0  0  0  0  0  0  0
   -1.1651   -2.7020   -2.4294 C   0  0  0  0  0  0  0  0  0  0  0  0
   -1.7799   -1.5100   -1.8515 N   0  0  0  0  0  0  0  0  0  0  0  0
   -2.9313   -1.5120   -1.0599 C   0  0  0  0  0  0  0  0  0  0  0  0
   -3.6466   -2.7677   -0.7306 C   0  0  0  0  0  0  0  0  0  0  0  0
   -4.7435   -2.6958    0.0180 C   0  0  0  0  0  0  0  0  0  0  0  0
   -5.2596   -1.4060    0.5158 C   0  0  0  0  0  0  0  0  0  0  0  0
   -6.2986   -1.4584    1.1711 O   0  0  0  0  0  0  0  0  0  0  0  0
   -4.5057   -0.2814    0.1726 N   0  0  0  0  0  0  0  0  0  0  0  0
   -4.8263    1.0655    0.5802 C   0  0  0  0  0  0  0  0  0  0  0  0
   -5.8891    1.3736    1.4425 C   0  0  0  0  0  0  0  0  0  0  0  0
   -6.1693    2.6952    1.8182 C   0  0  0  0  0  0  0  0  0  0  0  0
   -5.3912    3.7428    1.3399 C   0  0  0  0  0  0  0  0  0  0  0  0
   -4.3302    3.4699    0.4863 C   0  0  0  0  0  0  0  0  0  0  0  0
   -4.0538    2.1489    0.1142 C   0  0  0  0  0  0  0  0  0  0  0  0
   -3.3686   -0.3626   -0.6129 N   0  0  0  0  0  0  0  0  0  0  0  0
   -0.8993   -0.3276   -1.8297 C   0  0  0  0  0  0  0  0  0  0  0  0
   -0.1034   -0.2125   -0.5160 C   0  0  0  0  0  0  0  0  0  0  0  0
    3.0071    0.8156    1.0497 C   0  0  0  0  0  0  0  0  0  0  0  0
    4.1902    1.4658    0.6815 C   0  0  0  0  0  0  0  0  0  0  0  0
    7.4203    4.1478    1.2051 H   0  0  0  0  0  0  0  0  0  0  0  0
    8.0792    2.5191    1.4851 H   0  0  0  0  0  0  0  0  0  0  0  0
    6.4323    2.8895    1.9753 H   0  0  0  0  0  0  0  0  0  0  0  0
    7.4821    2.8557   -0.8987 H   0  0  0  0  0  0  0  0  0  0  0  0
    5.8173    3.2108   -0.5015 H   0  0  0  0  0  0  0  0  0  0  0  0
    6.0085   -1.2343   -0.2889 H   0  0  0  0  0  0  0  0  0  0  0  0
    3.9326   -2.3998    0.3744 H   0  0  0  0  0  0  0  0  0  0  0  0
    1.7778   -3.0749   -0.6819 H   0  0  0  0  0  0  0  0  0  0  0  0
    1.4051   -1.9144   -1.9361 H   0  0  0  0  0  0  0  0  0  0  0  0
   -0.6942   -3.7219   -0.5776 H   0  0  0  0  0  0  0  0  0  0  0  0
    0.2411   -4.2410   -1.9771 H   0  0  0  0  0  0  0  0  0  0  0  0
   -1.9274   -3.4251   -2.7386 H   0  0  0  0  0  0  0  0  0  0  0  0
   -0.6478   -2.4337   -3.3599 H   0  0  0  0  0  0  0  0  0  0  0  0
   -3.2746   -3.7191   -1.0753 H   0  0  0  0  0  0  0  0  0  0  0  0
   -5.3068   -3.5761    0.2994 H   0  0  0  0  0  0  0  0  0  0  0  0
   -6.5305    0.6064    1.8618 H   0  0  0  0  0  0  0  0  0  0  0  0
   -7.0002    2.8965    2.4899 H   0  0  0  0  0  0  0  0  0  0  0  0
   -5.6107    4.7654    1.6333 H   0  0  0  0  0  0  0  0  0  0  0  0
   -3.7142    4.2796    0.1054 H   0  0  0  0  0  0  0  0  0  0  0  0
   -3.2185    1.9800   -0.5594 H   0  0  0  0  0  0  0  0  0  0  0  0
   -0.2000   -0.3675   -2.6744 H   0  0  0  0  0  0  0  0  0  0  0  0
   -1.4790    0.5892   -1.9922 H   0  0  0  0  0  0  0  0  0  0  0  0
   -0.7820    0.1403    0.2689 H   0  0  0  0  0  0  0  0  0  0  0  0
    0.6708    0.5484   -0.6558 H   0  0  0  0  0  0  0  0  0  0  0  0
    2.1800    1.3964    1.4537 H   0  0  0  0  0  0  0  0  0  0  0  0
    4.2373    2.5417    0.8118 H   0  0  0  0  0  0  0  0  0  0  0  0
  1  2  1  0
  2  3  1  0
  3  4  1  0
  4  5  2  0
  5  6  1  0
  6  7  2  0
  7  8  1  0
  8  9  2  0
  8 10  2  0
  8 11  1  0
 11 12  1  0
 12 13  1  0
 13 14  1  0
 14 15  1  0
 15 16  1  0
 16 17  1  0
 17 18  2  0
 18 19  1  0
 19 20  2  0
 19 21  1  0
 21 22  1  0
 22 23  2  0
 23 24  1  0
 24 25  2  0
 25 26  1  0
 26 27  2  0
 21 28  1  0
 15 29  1  0
 29 30  1  0
  7 31  1  0
 31 32  2  0
 32  4  1  0
 30 11  1  0
 28 16  2  0
 27 22  1  0
  1 33  1  0
  1 34  1  0
  1 35  1  0
  2 36  1  0
  2 37  1  0
  5 38  1  0
  6 39  1  0
 12 40  1  0
 12 41  1  0
 13 42  1  0
 13 43  1  0
 14 44  1  0
 14 45  1  0
 17 46  1  0
 18 47  1  0
 23 48  1  0
 24 49  1  0
 25 50  1  0
 26 51  1  0
 27 52  1  0
 29 53  1  0
 29 54  1  0
 30 55  1  0
 30 56  1  0
 31 57  1  0
 32 58  1  0
M  END
$$$$
