
     RDKit          3D

 43 45  0  0  0  0  0  0  0  0999 V2000
   -1.4135    2.7178    1.3802 C   0  0  0  0  0  0  0  0  0  0  0  0
   -0.5105    1.7727    0.6261 C   0  0  0  0  0  0  0  0  0  0  0  0
    0.8706    2.0135    0.6524 C   0  0  0  0  0  0  0  0  0  0  0  0
    1.7489    1.1819   -0.0391 C   0  0  0  0  0  0  0  0  0  0  0  0
    1.2580    0.0932   -0.7678 C   0  0  0  0  0  0  0  0  0  0  0  0
    2.1955   -0.8565   -1.4419 C   0  0  0  0  0  0  0  0  0  0  0  0
    1.8402   -1.5499   -2.3882 O   0  0  0  0  0  0  0  0  0  0  0  0
    3.4465   -0.9408   -0.8702 N   0  0  0  0  0  0  0  0  0  0  0  0
    4.4435   -1.8564   -1.3764 C   0  0  0  0  0  0  0  0  0  0  0  0
    5.6939   -1.6063   -0.5943 C   0  0  0  0  0  0  0  0  0  0  0  0
    6.6487   -0.6315   -0.8138 C   0  0  0  0  0  0  0  0  0  0  0  0
    7.6609   -0.6283    0.1891 C   0  0  0  0  0  0  0  0  0  0  0  0
    7.4533   -1.6067    1.1386 C   0  0  0  0  0  0  0  0  0  0  0  0
    6.0606   -2.5390    0.8015 S   0  0  0  0  0  0  0  0  0  0  0  0
   -0.1239   -0.1267   -0.8451 C   0  0  0  0  0  0  0  0  0  0  0  0
   -1.0141    0.6935   -0.1364 C   0  0  0  0  0  0  0  0  0  0  0  0
   -2.4058    0.4671   -0.1262 N   0  0  0  0  0  0  0  0  0  0  0  0
   -3.1569   -0.3175   -0.9820 C   0  0  0  0  0  0  0  0  0  0  0  0
   -2.7627   -0.9508   -1.9523 O   0  0  0  0  0  0  0  0  0  0  0  0
   -4.6190   -0.2582   -0.6084 C   0  0  0  0  0  0  0  0  0  0  0  0
   -5.5173   -0.5843   -1.5589 C   0  0  0  0  0  0  0  0  0  0  0  0
   -7.2387   -0.4326   -1.3768 S   0  0  0  0  0  0  0  0  0  0  0  0
   -7.3089    0.3546    0.2642 C   0  0  0  0  0  0  0  0  0  0  0  0
   -6.2032   -0.2356    1.1270 C   0  0  0  0  0  0  0  0  0  0  0  0
   -4.9190    0.2039    0.6688 O   0  0  0  0  0  0  0  0  0  0  0  0
   -2.1494    3.1603    0.6947 H   0  0  0  0  0  0  0  0  0  0  0  0
   -1.9350    2.1916    2.1907 H   0  0  0  0  0  0  0  0  0  0  0  0
   -0.8521    3.5438    1.8330 H   0  0  0  0  0  0  0  0  0  0  0  0
    1.2736    2.8577    1.2075 H   0  0  0  0  0  0  0  0  0  0  0  0
    2.8118    1.4046   -0.0098 H   0  0  0  0  0  0  0  0  0  0  0  0
    3.5114   -0.7170    0.1126 H   0  0  0  0  0  0  0  0  0  0  0  0
    4.0766   -2.8839   -1.2888 H   0  0  0  0  0  0  0  0  0  0  0  0
    4.6011   -1.6410   -2.4391 H   0  0  0  0  0  0  0  0  0  0  0  0
    6.6050    0.0537   -1.6542 H   0  0  0  0  0  0  0  0  0  0  0  0
    8.4924    0.0615    0.2247 H   0  0  0  0  0  0  0  0  0  0  0  0
    8.0599   -1.8208    2.0123 H   0  0  0  0  0  0  0  0  0  0  0  0
   -0.4791   -0.9766   -1.4244 H   0  0  0  0  0  0  0  0  0  0  0  0
   -2.9462    0.9455    0.5810 H   0  0  0  0  0  0  0  0  0  0  0  0
   -5.1735   -0.9155   -2.5369 H   0  0  0  0  0  0  0  0  0  0  0  0
   -7.1758    1.4337    0.1266 H   0  0  0  0  0  0  0  0  0  0  0  0
   -8.2939    0.1682    0.6995 H   0  0  0  0  0  0  0  0  0  0  0  0
   -6.3187    0.0955    2.1693 H   0  0  0  0  0  0  0  0  0  0  0  0
   -6.2353   -1.3384    1.1450 H   0  0  0  0  0  0  0  0  0  0  0  0
  1  2  1  0
  2  3  2  0
  3  4  1  0
  4  5  2  0
  5  6  1  0
  6  7  2  0
  6  8  1  0
  8  9  1  0
  9 10  1  0
 10 11  2  0
 11 12  1  0
 12 13  2  0
 13 14  1  0
  5 15  1  0
 15 16  2  0
 16 17  1  0
 17 18  1  0
 18 19  2  0
 18 20  1  0
 20 21  2  0
 21 22  1  0
 22 23  1  0
 23 24  1  0
 24 25  1  0
 16  2  1  0
 25 20  1  0
 14 10  1  0
  1 26  1  0
  1 27  1  0
  1 28  1  0
  3 29  1  0
  4 30  1  0
  8 31  1  0
  9 32  1  0
  9 33  1  0
 11 34  1  0
 12 35  1  0
 13 36  1  0
 15 37  1  0
 17 38  1  0
 21 39  1  0
 23 40  1  0
 23 41  1  0
 24 42  1  0
 24 43  1  0
M  END
$$$$
