
     RDKit          3D

 40 43  0  0  0  0  0  0  0  0999 V2000
    8.5651   -0.1650   -0.0943 C   0  0  0  0  0  0  0  0  0  0  0  0
    7.0916   -0.0447   -0.2200 C   0  0  0  0  0  0  0  0  0  0  0  0
    6.4197    1.0865   -0.1764 N   0  0  0  0  0  0  0  0  0  0  0  0
    5.0581    0.8887   -0.3173 N   0  0  0  0  0  0  0  0  0  0  0  0
    4.7649   -0.3787   -0.4617 C   0  0  0  0  0  0  0  0  0  0  0  0
    3.5560   -0.9954   -0.6328 N   0  0  0  0  0  0  0  0  0  0  0  0
    2.3734   -0.2897   -0.6102 C   0  0  0  0  0  0  0  0  0  0  0  0
    2.2490    0.9161   -0.4064 O   0  0  0  0  0  0  0  0  0  0  0  0
    1.1500   -1.1657   -0.8206 C   0  0  0  0  0  0  0  0  0  0  0  0
    0.3230   -1.4109    0.7719 S   0  0  0  0  0  0  0  0  0  0  0  0
   -0.9857   -0.2570    0.5709 C   0  0  0  0  0  0  0  0  0  0  0  0
   -2.1641   -0.7612    0.3493 N   0  0  0  0  0  0  0  0  0  0  0  0
   -3.2194    0.1370    0.2213 C   0  0  0  0  0  0  0  0  0  0  0  0
   -4.5368   -0.4677   -0.1593 C   0  0  0  0  0  0  0  0  0  0  0  0
   -4.6739   -1.8535   -0.3192 C   0  0  0  0  0  0  0  0  0  0  0  0
   -5.9080   -2.4029   -0.6757 C   0  0  0  0  0  0  0  0  0  0  0  0
   -7.0108   -1.5734   -0.8747 C   0  0  0  0  0  0  0  0  0  0  0  0
   -6.8839   -0.1941   -0.7172 C   0  0  0  0  0  0  0  0  0  0  0  0
   -5.6516    0.3584   -0.3604 C   0  0  0  0  0  0  0  0  0  0  0  0
   -3.1364    1.4273    0.4166 N   0  0  0  0  0  0  0  0  0  0  0  0
   -1.8910    1.8671    0.7493 C   0  0  0  0  0  0  0  0  0  0  0  0
   -1.6177    3.0459    1.3176 C   0  0  0  0  0  0  0  0  0  0  0  0
   -0.1659    2.9853    1.6030 C   0  0  0  0  0  0  0  0  0  0  0  0
    0.4959    3.9292    1.9934 O   0  0  0  0  0  0  0  0  0  0  0  0
    0.2762    1.6994    1.3179 N   0  0  0  0  0  0  0  0  0  0  0  0
   -0.7663    1.0918    0.6379 N   0  0  0  0  0  0  0  0  0  0  0  0
    6.1052   -1.4366   -0.4443 S   0  0  0  0  0  0  0  0  0  0  0  0
    8.8333   -0.7821    0.7691 H   0  0  0  0  0  0  0  0  0  0  0  0
    9.0199    0.8213    0.0426 H   0  0  0  0  0  0  0  0  0  0  0  0
    8.9975   -0.6132   -0.9944 H   0  0  0  0  0  0  0  0  0  0  0  0
    3.5696   -2.0015   -0.7116 H   0  0  0  0  0  0  0  0  0  0  0  0
    1.4393   -2.1434   -1.2183 H   0  0  0  0  0  0  0  0  0  0  0  0
    0.4958   -0.6952   -1.5617 H   0  0  0  0  0  0  0  0  0  0  0  0
   -3.8265   -2.5167   -0.1642 H   0  0  0  0  0  0  0  0  0  0  0  0
   -6.0082   -3.4787   -0.7958 H   0  0  0  0  0  0  0  0  0  0  0  0
   -7.9709   -2.0024   -1.1510 H   0  0  0  0  0  0  0  0  0  0  0  0
   -7.7439    0.4530   -0.8708 H   0  0  0  0  0  0  0  0  0  0  0  0
   -5.5691    1.4364   -0.2408 H   0  0  0  0  0  0  0  0  0  0  0  0
   -2.2672    3.8622    1.5626 H   0  0  0  0  0  0  0  0  0  0  0  0
    1.2138    1.6243    0.9159 H   0  0  0  0  0  0  0  0  0  0  0  0
  1  2  1  0
  2  3  2  0
  3  4  1  0
  4  5  2  0
  5  6  1  0
  6  7  1  0
  7  8  2  0
  7  9  1  0
  9 10  1  0
 10 11  1  0
 11 12  2  0
 12 13  1  0
 13 14  1  0
 14 15  2  0
 15 16  1  0
 16 17  2  0
 17 18  1  0
 18 19  2  0
 13 20  2  0
 20 21  1  0
 21 22  2  0
 22 23  1  0
 23 24  2  0
 23 25  1  0
 25 26  1  0
  5 27  1  0
 27  2  1  0
 26 11  1  0
 19 14  1  0
 26 21  1  0
  1 28  1  0
  1 29  1  0
  1 30  1  0
  6 31  1  0
  9 32  1  0
  9 33  1  0
 15 34  1  0
 16 35  1  0
 17 36  1  0
 18 37  1  0
 19 38  1  0
 22 39  1  0
 25 40  1  0
M  END
$$$$
