
     RDKit          3D

 39 42  0  0  0  0  0  0  0  0999 V2000
    5.7341   -1.0352    3.1537 C   0  0  0  0  0  0  0  0  0  0  0  0
    5.3187   -0.7016    1.7777 C   0  0  0  0  0  0  0  0  0  0  0  0
    5.9956   -0.8227    0.6551 N   0  0  0  0  0  0  0  0  0  0  0  0
    5.1228   -0.3620   -0.2987 C   0  0  0  0  0  0  0  0  0  0  0  0
    3.9331    0.0249    0.2810 C   0  0  0  0  0  0  0  0  0  0  0  0
    2.6684    0.5722   -0.1926 C   0  0  0  0  0  0  0  0  0  0  0  0
    1.6364    0.8990    0.7036 C   0  0  0  0  0  0  0  0  0  0  0  0
    0.4233    1.4230    0.2470 C   0  0  0  0  0  0  0  0  0  0  0  0
    0.2300    1.6143   -1.1215 C   0  0  0  0  0  0  0  0  0  0  0  0
   -1.3009    2.2887   -1.7145 S   0  0  0  0  0  6  0  0  0  0  0  0
   -0.9859    3.1351   -2.8465 O   0  0  0  0  0  0  0  0  0  0  0  0
   -2.0571    2.7968   -0.5909 O   0  0  0  0  0  0  0  0  0  0  0  0
   -2.0811    0.9288   -2.3536 N   0  0  0  0  0  0  0  0  0  0  0  0
   -2.7723    0.0753   -1.4496 C   0  0  0  0  0  0  0  0  0  0  0  0
   -2.0752   -0.9721   -0.8208 C   0  0  0  0  0  0  0  0  0  0  0  0
   -2.7225   -1.7994    0.1018 C   0  0  0  0  0  0  0  0  0  0  0  0
   -4.0501   -1.5431    0.3684 C   0  0  0  0  0  0  0  0  0  0  0  0
   -4.7268   -0.5134   -0.2437 C   0  0  0  0  0  0  0  0  0  0  0  0
   -4.1158    0.3194   -1.1569 C   0  0  0  0  0  0  0  0  0  0  0  0
   -6.0226   -0.4326    0.1617 O   0  0  0  0  0  0  0  0  0  0  0  0
   -6.0810   -1.5206    1.1077 C   0  0  0  0  0  0  0  0  0  0  0  0
   -4.8351   -2.2380    1.2336 O   0  0  0  0  0  0  0  0  0  0  0  0
    1.2448    1.3109   -2.0308 C   0  0  0  0  0  0  0  0  0  0  0  0
    2.4556    0.7888   -1.5643 C   0  0  0  0  0  0  0  0  0  0  0  0
    4.0575   -0.1954    1.6296 O   0  0  0  0  0  0  0  0  0  0  0  0
    6.7541   -1.4304    3.1643 H   0  0  0  0  0  0  0  0  0  0  0  0
    5.0690   -1.7909    3.5817 H   0  0  0  0  0  0  0  0  0  0  0  0
    5.7047   -0.1450    3.7888 H   0  0  0  0  0  0  0  0  0  0  0  0
    5.3985   -0.3347   -1.3433 H   0  0  0  0  0  0  0  0  0  0  0  0
    1.7696    0.7521    1.7742 H   0  0  0  0  0  0  0  0  0  0  0  0
   -0.3583    1.6723    0.9620 H   0  0  0  0  0  0  0  0  0  0  0  0
   -2.5579    1.1732   -3.2215 H   0  0  0  0  0  0  0  0  0  0  0  0
   -1.0301   -1.1557   -1.0565 H   0  0  0  0  0  0  0  0  0  0  0  0
   -2.2005   -2.6137    0.5915 H   0  0  0  0  0  0  0  0  0  0  0  0
   -4.6632    1.1376   -1.6091 H   0  0  0  0  0  0  0  0  0  0  0  0
   -6.3549   -1.1178    2.0897 H   0  0  0  0  0  0  0  0  0  0  0  0
   -6.8585   -2.2230    0.7861 H   0  0  0  0  0  0  0  0  0  0  0  0
    1.1024    1.4779   -3.0964 H   0  0  0  0  0  0  0  0  0  0  0  0
    3.2315    0.5571   -2.2909 H   0  0  0  0  0  0  0  0  0  0  0  0
  1  2  1  0
  2  3  2  0
  3  4  1  0
  4  5  2  0
  5  6  1  0
  6  7  2  0
  7  8  1  0
  8  9  2  0
  9 10  1  0
 10 11  2  0
 10 12  2  0
 10 13  1  0
 13 14  1  0
 14 15  2  0
 15 16  1  0
 16 17  2  0
 17 18  1  0
 18 19  2  0
 18 20  1  0
 20 21  1  0
 21 22  1  0
  9 23  1  0
 23 24  2  0
  5 25  1  0
 25  2  1  0
 24  6  1  0
 19 14  1  0
 22 17  1  0
  1 26  1  0
  1 27  1  0
  1 28  1  0
  4 29  1  0
  7 30  1  0
  8 31  1  0
 13 32  1  0
 15 33  1  0
 16 34  1  0
 19 35  1  0
 21 36  1  0
 21 37  1  0
 23 38  1  0
 24 39  1  0
M  END
$$$$
