
     RDKit          3D

 58 61  0  0  0  0  0  0  0  0999 V2000
   -8.8977    0.0591   -1.6414 C   0  0  0  0  0  0  0  0  0  0  0  0
   -7.6027    0.5283   -0.9824 C   0  0  0  0  0  0  0  0  0  0  0  0
   -7.3485    2.0123   -1.2794 C   0  0  0  0  0  0  0  0  0  0  0  0
   -5.8750    2.3894   -1.1517 C   0  0  0  0  0  0  0  0  0  0  0  0
   -5.1161    1.4404   -0.2281 C   0  0  0  0  0  0  0  0  0  0  0  0
   -5.1766    0.0642   -0.7366 N   0  0  0  0  0  0  0  0  0  0  0  0
   -4.0868   -0.7679   -0.5630 C   0  0  0  0  0  0  0  0  0  0  0  0
   -3.0400   -0.4772    0.1527 N   0  0  0  0  0  0  0  0  0  0  0  0
   -2.1356   -1.5084    0.1170 N   0  0  0  0  0  0  0  0  0  0  0  0
   -0.9517   -1.4534    0.8253 C   0  0  0  0  0  0  0  0  0  0  0  0
   -0.5929   -0.5140    1.5382 O   0  0  0  0  0  0  0  0  0  0  0  0
   -0.0997   -2.6656    0.6754 C   0  0  0  0  0  0  0  0  0  0  0  0
    1.2224   -2.8485    1.3400 C   0  0  0  0  0  0  0  0  0  0  0  0
    1.9149   -3.8409    1.1329 O   0  0  0  0  0  0  0  0  0  0  0  0
    1.5911   -1.8444    2.1950 N   0  0  0  0  0  0  0  0  0  0  0  0
    2.8843   -1.7929    2.8309 C   0  0  0  0  0  0  0  0  0  0  0  0
    3.8341   -0.9150    2.0577 C   0  0  0  0  0  0  0  0  0  0  0  0
    3.6639    0.4760    2.0414 C   0  0  0  0  0  0  0  0  0  0  0  0
    4.5468    1.2880    1.3260 C   0  0  0  0  0  0  0  0  0  0  0  0
    5.6174    0.7279    0.6241 C   0  0  0  0  0  0  0  0  0  0  0  0
    6.4056    1.6253   -0.0354 O   0  0  0  0  0  0  0  0  0  0  0  0
    7.7679    1.2596   -0.2887 C   0  0  0  0  0  0  0  0  0  0  0  0
    7.9169    0.8559   -1.7513 C   0  0  0  0  0  0  0  0  0  0  0  0
    8.6175    2.4938    0.0072 C   0  0  0  0  0  0  0  0  0  0  0  0
    5.7776   -0.6581    0.6135 C   0  0  0  0  0  0  0  0  0  0  0  0
    4.8910   -1.4744    1.3254 C   0  0  0  0  0  0  0  0  0  0  0  0
   -0.5688   -3.6589   -0.1012 C   0  0  0  0  0  0  0  0  0  0  0  0
   -1.7734   -3.6641   -0.7698 N   0  0  0  0  0  0  0  0  0  0  0  0
   -2.4840   -2.5986   -0.6252 C   0  0  0  0  0  0  0  0  0  0  0  0
   -4.0317   -2.3475   -1.3475 S   0  0  0  0  0  0  0  0  0  0  0  0
   -6.4132   -0.3410   -1.4148 C   0  0  0  0  0  0  0  0  0  0  0  0
   -8.8236    0.0979   -2.7347 H   0  0  0  0  0  0  0  0  0  0  0  0
   -9.7427    0.6887   -1.3344 H   0  0  0  0  0  0  0  0  0  0  0  0
   -9.1245   -0.9734   -1.3557 H   0  0  0  0  0  0  0  0  0  0  0  0
   -7.7255    0.4179    0.1053 H   0  0  0  0  0  0  0  0  0  0  0  0
   -7.6954    2.2826   -2.2858 H   0  0  0  0  0  0  0  0  0  0  0  0
   -7.9449    2.6147   -0.5813 H   0  0  0  0  0  0  0  0  0  0  0  0
   -5.4131    2.3645   -2.1483 H   0  0  0  0  0  0  0  0  0  0  0  0
   -5.7864    3.4237   -0.7935 H   0  0  0  0  0  0  0  0  0  0  0  0
   -5.5295    1.4746    0.7878 H   0  0  0  0  0  0  0  0  0  0  0  0
   -4.0783    1.7882   -0.1711 H   0  0  0  0  0  0  0  0  0  0  0  0
    1.0029   -1.0158    2.2586 H   0  0  0  0  0  0  0  0  0  0  0  0
    2.7413   -1.3789    3.8353 H   0  0  0  0  0  0  0  0  0  0  0  0
    3.2891   -2.8050    2.9485 H   0  0  0  0  0  0  0  0  0  0  0  0
    2.8427    0.9380    2.5813 H   0  0  0  0  0  0  0  0  0  0  0  0
    4.4043    2.3657    1.3225 H   0  0  0  0  0  0  0  0  0  0  0  0
    8.1153    0.4546    0.3702 H   0  0  0  0  0  0  0  0  0  0  0  0
    7.3190   -0.0318   -1.9762 H   0  0  0  0  0  0  0  0  0  0  0  0
    8.9622    0.6377   -2.0010 H   0  0  0  0  0  0  0  0  0  0  0  0
    7.5585    1.6511   -2.4160 H   0  0  0  0  0  0  0  0  0  0  0  0
    9.6846    2.2876   -0.1369 H   0  0  0  0  0  0  0  0  0  0  0  0
    8.4606    2.8277    1.0381 H   0  0  0  0  0  0  0  0  0  0  0  0
    8.3334    3.3312   -0.6402 H   0  0  0  0  0  0  0  0  0  0  0  0
    6.5694   -1.1356    0.0470 H   0  0  0  0  0  0  0  0  0  0  0  0
    5.0271   -2.5562    1.3040 H   0  0  0  0  0  0  0  0  0  0  0  0
    0.0208   -4.5658   -0.2383 H   0  0  0  0  0  0  0  0  0  0  0  0
   -6.6561   -1.3822   -1.1711 H   0  0  0  0  0  0  0  0  0  0  0  0
   -6.2680   -0.2769   -2.5006 H   0  0  0  0  0  0  0  0  0  0  0  0
  1  2  1  0
  2  3  1  0
  3  4  1  0
  4  5  1  0
  5  6  1  0
  6  7  1  0
  7  8  2  0
  8  9  1  0
  9 10  1  0
 10 11  2  0
 10 12  1  0
 12 13  1  0
 13 14  2  0
 13 15  1  0
 15 16  1  0
 16 17  1  0
 17 18  2  0
 18 19  1  0
 19 20  2  0
 20 21  1  0
 21 22  1  0
 22 23  1  0
 22 24  1  0
 20 25  1  0
 25 26  2  0
 12 27  2  0
 27 28  1  0
 28 29  2  0
 29 30  1  0
  6 31  1  0
 31  2  1  0
 30  7  1  0
 29  9  1  0
 26 17  1  0
  1 32  1  0
  1 33  1  0
  1 34  1  0
  2 35  1  0
  3 36  1  0
  3 37  1  0
  4 38  1  0
  4 39  1  0
  5 40  1  0
  5 41  1  0
 15 42  1  0
 16 43  1  0
 16 44  1  0
 18 45  1  0
 19 46  1  0
 22 47  1  0
 23 48  1  0
 23 49  1  0
 23 50  1  0
 24 51  1  0
 24 52  1  0
 24 53  1  0
 25 54  1  0
 26 55  1  0
 27 56  1  0
 31 57  1  0
 31 58  1  0
M  END
$$$$
