
     RDKit          3D

 42 44  0  0  0  0  0  0  0  0999 V2000
   -2.5188    0.2616    1.6584 C   0  0  0  0  0  0  0  0  0  0  0  0
   -3.1725   -0.1629    0.4176 N   0  0  0  0  0  0  0  0  0  0  0  0
   -2.4328   -0.7130   -0.6596 C   0  0  0  0  0  0  0  0  0  0  0  0
   -2.9199   -0.9790   -1.7597 O   0  0  0  0  0  0  0  0  0  0  0  0
   -0.9450   -0.9558   -0.3822 C   0  0  0  0  0  0  0  0  0  0  0  0
   -0.0139   -1.4444   -1.8626 S   0  0  0  0  0  0  0  0  0  0  0  0
    1.4954   -1.8080   -1.1002 C   0  0  0  0  0  0  0  0  0  0  0  0
    1.8368   -3.0067   -0.7568 N   0  0  0  0  0  0  0  0  0  0  0  0
    3.0813   -3.1147   -0.2068 C   0  0  0  0  0  0  0  0  0  0  0  0
    3.9289   -2.0959   -0.0215 C   0  0  0  0  0  0  0  0  0  0  0  0
    3.6099   -0.7817   -0.3558 N   0  0  0  0  0  0  0  0  0  0  0  0
    4.5506    0.2970   -0.1402 C   0  0  0  0  0  0  0  0  0  0  0  0
    4.1346    1.6242    0.0657 C   0  0  0  0  0  0  0  0  0  0  0  0
    5.0588    2.6537    0.2849 C   0  0  0  0  0  0  0  0  0  0  0  0
    6.4144    2.3689    0.3007 C   0  0  0  0  0  0  0  0  0  0  0  0
    7.2980    3.3524    0.5108 F   0  0  0  0  0  0  0  0  0  0  0  0
    6.8635    1.0737    0.1004 C   0  0  0  0  0  0  0  0  0  0  0  0
    5.9380    0.0460   -0.1175 C   0  0  0  0  0  0  0  0  0  0  0  0
    2.3269   -0.5312   -0.9128 C   0  0  0  0  0  0  0  0  0  0  0  0
    1.8732    0.5625   -1.2275 O   0  0  0  0  0  0  0  0  0  0  0  0
   -4.5848    0.1243    0.2957 C   0  0  0  0  0  0  0  0  0  0  0  0
   -5.1866    1.1311    1.0730 C   0  0  0  0  0  0  0  0  0  0  0  0
   -6.5557    1.4095    0.9786 C   0  0  0  0  0  0  0  0  0  0  0  0
   -7.3571    0.6820    0.1072 C   0  0  0  0  0  0  0  0  0  0  0  0
   -6.7882   -0.3222   -0.6668 C   0  0  0  0  0  0  0  0  0  0  0  0
   -5.4183   -0.5974   -0.5709 C   0  0  0  0  0  0  0  0  0  0  0  0
   -3.1957    0.1545    2.5122 H   0  0  0  0  0  0  0  0  0  0  0  0
   -1.6475   -0.3547    1.8882 H   0  0  0  0  0  0  0  0  0  0  0  0
   -2.1954    1.3013    1.5499 H   0  0  0  0  0  0  0  0  0  0  0  0
   -0.4957   -0.0361    0.0021 H   0  0  0  0  0  0  0  0  0  0  0  0
   -0.8615   -1.7573    0.3585 H   0  0  0  0  0  0  0  0  0  0  0  0
    3.3742   -4.1201    0.0896 H   0  0  0  0  0  0  0  0  0  0  0  0
    4.8863   -2.2913    0.4487 H   0  0  0  0  0  0  0  0  0  0  0  0
    3.0838    1.8976    0.0953 H   0  0  0  0  0  0  0  0  0  0  0  0
    4.7206    3.6728    0.4455 H   0  0  0  0  0  0  0  0  0  0  0  0
    7.9296    0.8692    0.1028 H   0  0  0  0  0  0  0  0  0  0  0  0
    6.3400   -0.9436   -0.3152 H   0  0  0  0  0  0  0  0  0  0  0  0
   -4.6038    1.7518    1.7467 H   0  0  0  0  0  0  0  0  0  0  0  0
   -6.9909    2.2020    1.5819 H   0  0  0  0  0  0  0  0  0  0  0  0
   -8.4192    0.8967    0.0289 H   0  0  0  0  0  0  0  0  0  0  0  0
   -7.4050   -0.9013   -1.3495 H   0  0  0  0  0  0  0  0  0  0  0  0
   -5.0365   -1.4153   -1.1756 H   0  0  0  0  0  0  0  0  0  0  0  0
  1  2  1  0
  2  3  1  0
  3  4  2  0
  3  5  1  0
  5  6  1  0
  6  7  1  0
  7  8  2  0
  8  9  1  0
  9 10  2  0
 10 11  1  0
 11 12  1  0
 12 13  2  0
 13 14  1  0
 14 15  2  0
 15 16  1  0
 15 17  1  0
 17 18  2  0
 11 19  1  0
 19 20  2  0
  2 21  1  0
 21 22  2  0
 22 23  1  0
 23 24  2  0
 24 25  1  0
 25 26  2  0
 19  7  1  0
 26 21  1  0
 18 12  1  0
  1 27  1  0
  1 28  1  0
  1 29  1  0
  5 30  1  0
  5 31  1  0
  9 32  1  0
 10 33  1  0
 13 34  1  0
 14 35  1  0
 17 36  1  0
 18 37  1  0
 22 38  1  0
 23 39  1  0
 24 40  1  0
 25 41  1  0
 26 42  1  0
M  END
$$$$
