
     RDKit          3D

 45 48  0  0  0  0  0  0  0  0999 V2000
    5.7635    2.0255   -0.5797 C   0  0  0  0  0  0  0  0  0  0  0  0
    4.8294    1.0666   -1.2742 C   0  0  0  0  0  0  0  0  0  0  0  0
    5.0393    0.7247   -2.4376 O   0  0  0  0  0  0  0  0  0  0  0  0
    3.7506    0.5991   -0.5421 N   0  0  0  0  0  0  0  0  0  0  0  0
    3.5086    0.9219    0.8695 C   0  0  0  0  0  0  0  0  0  0  0  0
    2.5369   -0.0487    1.5522 C   0  0  0  0  0  0  0  0  0  0  0  0
    1.2829   -0.2008    0.8123 N   0  0  0  0  0  0  0  0  0  0  0  0
    0.1346   -0.5363    1.5201 C   0  0  0  0  0  0  0  0  0  0  0  0
    0.1165   -0.7488    2.7286 O   0  0  0  0  0  0  0  0  0  0  0  0
   -1.1385   -0.6291    0.7791 C   0  0  0  0  0  0  0  0  0  0  0  0
   -1.7048    0.5601    0.3263 C   0  0  0  0  0  0  0  0  0  0  0  0
   -2.8902    0.4780   -0.3751 C   0  0  0  0  0  0  0  0  0  0  0  0
   -3.5683    1.6494   -0.9128 C   0  0  0  0  0  0  0  0  0  0  0  0
   -4.7503    1.8339   -1.6044 C   0  0  0  0  0  0  0  0  0  0  0  0
   -4.8646    3.2220   -1.8564 C   0  0  0  0  0  0  0  0  0  0  0  0
   -3.7467    3.8020   -1.3061 C   0  0  0  0  0  0  0  0  0  0  0  0
   -2.9537    2.8597   -0.7335 O   0  0  0  0  0  0  0  0  0  0  0  0
   -3.5116   -0.6997   -0.6276 N   0  0  0  0  0  0  0  0  0  0  0  0
   -2.9686   -1.8398   -0.1667 C   0  0  0  0  0  0  0  0  0  0  0  0
   -3.6232   -3.0370   -0.4249 C   0  0  0  0  0  0  0  0  0  0  0  0
   -3.1228   -4.2645    0.0165 C   0  0  0  0  0  0  0  0  0  0  0  0
   -1.9377   -4.3055    0.7371 C   0  0  0  0  0  0  0  0  0  0  0  0
   -1.2599   -3.1191    1.0087 C   0  0  0  0  0  0  0  0  0  0  0  0
   -1.7644   -1.8732    0.5604 C   0  0  0  0  0  0  0  0  0  0  0  0
    1.3634   -0.1113   -0.6544 C   0  0  0  0  0  0  0  0  0  0  0  0
    2.7897   -0.2980   -1.1890 C   0  0  0  0  0  0  0  0  0  0  0  0
    6.4362    2.4721   -1.3184 H   0  0  0  0  0  0  0  0  0  0  0  0
    5.2046    2.8353   -0.1041 H   0  0  0  0  0  0  0  0  0  0  0  0
    6.3644    1.4897    0.1594 H   0  0  0  0  0  0  0  0  0  0  0  0
    4.4588    0.9367    1.4120 H   0  0  0  0  0  0  0  0  0  0  0  0
    3.0932    1.9365    0.8900 H   0  0  0  0  0  0  0  0  0  0  0  0
    2.3338    0.2861    2.5752 H   0  0  0  0  0  0  0  0  0  0  0  0
    2.9871   -1.0470    1.6156 H   0  0  0  0  0  0  0  0  0  0  0  0
   -1.2299    1.5152    0.5230 H   0  0  0  0  0  0  0  0  0  0  0  0
   -5.4394    1.0493   -1.8858 H   0  0  0  0  0  0  0  0  0  0  0  0
   -5.6626    3.7352   -2.3742 H   0  0  0  0  0  0  0  0  0  0  0  0
   -3.3863    4.8192   -1.2404 H   0  0  0  0  0  0  0  0  0  0  0  0
   -4.5548   -3.0147   -0.9866 H   0  0  0  0  0  0  0  0  0  0  0  0
   -3.6644   -5.1815   -0.2011 H   0  0  0  0  0  0  0  0  0  0  0  0
   -1.5431   -5.2542    1.0922 H   0  0  0  0  0  0  0  0  0  0  0  0
   -0.3376   -3.1689    1.5855 H   0  0  0  0  0  0  0  0  0  0  0  0
    0.9990    0.8862   -0.9268 H   0  0  0  0  0  0  0  0  0  0  0  0
    0.6986   -0.8524   -1.1091 H   0  0  0  0  0  0  0  0  0  0  0  0
    2.7996   -0.1530   -2.2744 H   0  0  0  0  0  0  0  0  0  0  0  0
    3.1328   -1.3205   -0.9894 H   0  0  0  0  0  0  0  0  0  0  0  0
  1  2  1  0
  2  3  2  0
  2  4  1  0
  4  5  1  0
  5  6  1  0
  6  7  1  0
  7  8  1  0
  8  9  2  0
  8 10  1  0
 10 11  2  0
 11 12  1  0
 12 13  1  0
 13 14  2  0
 14 15  1  0
 15 16  2  0
 16 17  1  0
 12 18  2  0
 18 19  1  0
 19 20  2  0
 20 21  1  0
 21 22  2  0
 22 23  1  0
 23 24  2  0
  7 25  1  0
 25 26  1  0
 26  4  1  0
 24 10  1  0
 17 13  1  0
 24 19  1  0
  1 27  1  0
  1 28  1  0
  1 29  1  0
  5 30  1  0
  5 31  1  0
  6 32  1  0
  6 33  1  0
 11 34  1  0
 14 35  1  0
 15 36  1  0
 16 37  1  0
 20 38  1  0
 21 39  1  0
 22 40  1  0
 23 41  1  0
 25 42  1  0
 25 43  1  0
 26 44  1  0
 26 45  1  0
M  END
$$$$
