
     RDKit          3D

 51 54  0  0  0  0  0  0  0  0999 V2000
   -1.7176   -4.1977    1.9407 C   0  0  0  0  0  0  0  0  0  0  0  0
   -2.4535   -3.0803    1.4233 N   0  0  0  0  0  0  0  0  0  0  0  0
   -3.8581   -2.9482    1.4233 C   0  0  0  0  0  0  0  0  0  0  0  0
   -4.6737   -3.7479    1.8535 O   0  0  0  0  0  0  0  0  0  0  0  0
   -4.1318   -1.6987    0.8229 N   0  0  0  0  0  0  0  0  0  0  0  0
   -5.4380   -1.1464    0.6139 C   0  0  0  0  0  0  0  0  0  0  0  0
   -2.9223   -1.0868    0.4672 C   0  0  0  0  0  0  0  0  0  0  0  0
   -2.6891    0.1323   -0.1379 C   0  0  0  0  0  0  0  0  0  0  0  0
   -1.3575    0.5093   -0.3686 C   0  0  0  0  0  0  0  0  0  0  0  0
   -0.9978    1.7554   -0.9300 N   0  0  0  0  0  0  0  0  0  0  0  0
   -1.8147    2.3083   -2.0342 C   0  0  0  0  0  0  0  0  0  0  0  0
   -2.9014    3.2912   -1.5654 C   0  0  0  0  0  0  0  0  0  0  0  0
   -2.3896    4.2805   -0.6628 O   0  0  0  0  0  0  0  0  0  0  0  0
   -1.8081    3.6494    0.4874 C   0  0  0  0  0  0  0  0  0  0  0  0
   -0.6154    2.7750    0.0825 C   0  0  0  0  0  0  0  0  0  0  0  0
   -0.2984   -0.3951    0.0032 C   0  0  0  0  0  0  0  0  0  0  0  0
    1.0048    0.0196   -0.3535 N   0  0  0  0  0  0  0  0  0  0  0  0
    2.2158   -0.5397    0.0060 C   0  0  0  0  0  0  0  0  0  0  0  0
    2.3473   -1.4638    0.7977 O   0  0  0  0  0  0  0  0  0  0  0  0
    3.2532    0.1011   -0.6546 N   0  0  0  0  0  0  0  0  0  0  0  0
    4.6389   -0.1108   -0.4994 C   0  0  0  0  0  0  0  0  0  0  0  0
    5.1977   -0.9301    0.4846 C   0  0  0  0  0  0  0  0  0  0  0  0
    6.5852   -1.0831    0.5804 C   0  0  0  0  0  0  0  0  0  0  0  0
    7.4278   -0.4148   -0.3046 C   0  0  0  0  0  0  0  0  0  0  0  0
    6.8758    0.4071   -1.2823 C   0  0  0  0  0  0  0  0  0  0  0  0
    8.0110    1.3228   -2.4864 Br  0  0  0  0  0  0  0  0  0  0  0  0
    5.4918    0.5635   -1.3828 C   0  0  0  0  0  0  0  0  0  0  0  0
   -0.5638   -1.6232    0.6187 C   0  0  0  0  0  0  0  0  0  0  0  0
   -1.8851   -1.9402    0.8405 C   0  0  0  0  0  0  0  0  0  0  0  0
   -1.1267   -4.6457    1.1365 H   0  0  0  0  0  0  0  0  0  0  0  0
   -1.0553   -3.8557    2.7412 H   0  0  0  0  0  0  0  0  0  0  0  0
   -2.4016   -4.9506    2.3417 H   0  0  0  0  0  0  0  0  0  0  0  0
   -6.2060   -1.8315    0.9832 H   0  0  0  0  0  0  0  0  0  0  0  0
   -5.5935   -0.9803   -0.4560 H   0  0  0  0  0  0  0  0  0  0  0  0
   -5.5194   -0.1972    1.1514 H   0  0  0  0  0  0  0  0  0  0  0  0
   -3.5217    0.7677   -0.3962 H   0  0  0  0  0  0  0  0  0  0  0  0
   -2.2491    1.5128   -2.6511 H   0  0  0  0  0  0  0  0  0  0  0  0
   -1.1217    2.8595   -2.6824 H   0  0  0  0  0  0  0  0  0  0  0  0
   -3.3110    3.8187   -2.4332 H   0  0  0  0  0  0  0  0  0  0  0  0
   -3.7393    2.7805   -1.0823 H   0  0  0  0  0  0  0  0  0  0  0  0
   -1.4717    4.4422    1.1630 H   0  0  0  0  0  0  0  0  0  0  0  0
   -2.5767    3.0691    1.0108 H   0  0  0  0  0  0  0  0  0  0  0  0
    0.1477    3.4129   -0.3804 H   0  0  0  0  0  0  0  0  0  0  0  0
   -0.1597    2.3236    0.9718 H   0  0  0  0  0  0  0  0  0  0  0  0
    1.0044    0.8991   -0.8550 H   0  0  0  0  0  0  0  0  0  0  0  0
    2.9761    0.7029   -1.4150 H   0  0  0  0  0  0  0  0  0  0  0  0
    4.5800   -1.4635    1.2010 H   0  0  0  0  0  0  0  0  0  0  0  0
    7.0034   -1.7265    1.3510 H   0  0  0  0  0  0  0  0  0  0  0  0
    8.5040   -0.5404   -0.2222 H   0  0  0  0  0  0  0  0  0  0  0  0
    5.0853    1.2108   -2.1547 H   0  0  0  0  0  0  0  0  0  0  0  0
    0.2189   -2.3170    0.8935 H   0  0  0  0  0  0  0  0  0  0  0  0
  1  2  1  0
  2  3  1  0
  3  4  2  0
  3  5  1  0
  5  6  1  0
  5  7  1  0
  7  8  2  0
  8  9  1  0
  9 10  1  0
 10 11  1  0
 11 12  1  0
 12 13  1  0
 13 14  1  0
 14 15  1  0
  9 16  2  0
 16 17  1  0
 17 18  1  0
 18 19  2  0
 18 20  1  0
 20 21  1  0
 21 22  2  0
 22 23  1  0
 23 24  2  0
 24 25  1  0
 25 26  1  0
 25 27  2  0
 16 28  1  0
 28 29  2  0
 29  2  1  0
 29  7  1  0
 15 10  1  0
 27 21  1  0
  1 30  1  0
  1 31  1  0
  1 32  1  0
  6 33  1  0
  6 34  1  0
  6 35  1  0
  8 36  1  0
 11 37  1  0
 11 38  1  0
 12 39  1  0
 12 40  1  0
 14 41  1  0
 14 42  1  0
 15 43  1  0
 15 44  1  0
 17 45  1  0
 20 46  1  0
 22 47  1  0
 23 48  1  0
 24 49  1  0
 27 50  1  0
 28 51  1  0
M  END
$$$$
