
     RDKit          3D

 64 66  0  0  0  0  0  0  0  0999 V2000
    9.6708   -1.7500   -0.0876 C   0  0  0  0  0  0  0  0  0  0  0  0
    8.8373   -0.4924    0.0927 C   0  0  0  0  0  0  0  0  0  0  0  0
    7.6906   -0.5250   -0.7536 O   0  0  0  0  0  0  0  0  0  0  0  0
    6.5811   -1.2018   -0.1632 C   0  0  0  0  0  0  0  0  0  0  0  0
    5.3899   -1.1038   -1.1106 C   0  0  0  0  0  0  0  0  0  0  0  0
    4.9026    0.3335   -1.3015 C   0  0  0  0  0  0  0  0  0  0  0  0
    3.6487    0.5846   -0.6109 N   0  0  0  0  0  0  0  0  0  0  0  0
    3.5901    0.9320    0.7165 C   0  0  0  0  0  0  0  0  0  0  0  0
    4.5869    1.0316    1.4244 O   0  0  0  0  0  0  0  0  0  0  0  0
    2.1929    1.1582    1.2839 C   0  0  0  0  0  0  0  0  0  0  0  0
    1.4191    2.2570    0.5363 C   0  0  0  0  0  0  0  0  0  0  0  0
    0.3749    1.6943   -0.4239 C   0  0  0  0  0  0  0  0  0  0  0  0
   -0.5739    0.7782    0.2436 N   0  0  0  0  0  0  0  0  0  0  0  0
   -1.8812    1.1875    0.2936 C   0  0  0  0  0  0  0  0  0  0  0  0
   -2.2577    2.4339    0.6240 N   0  0  0  0  0  0  0  0  0  0  0  0
   -3.8105    2.3681    0.4952 S   0  0  0  0  0  6  0  0  0  0  0  0
   -4.5370    2.9685    1.7992 O   0  0  0  0  0  0  0  0  0  0  0  0
   -4.2518    3.4164   -0.6538 O   0  0  0  0  0  0  0  0  0  0  0  0
   -4.2427    0.8655    0.1039 C   0  0  0  0  0  0  0  0  0  0  0  0
   -5.6056    0.3774   -0.0370 C   0  0  0  0  0  0  0  0  0  0  0  0
   -6.0628   -0.6712    0.7728 C   0  0  0  0  0  0  0  0  0  0  0  0
   -7.3668   -1.1552    0.6417 C   0  0  0  0  0  0  0  0  0  0  0  0
   -8.2410   -0.5961   -0.2978 C   0  0  0  0  0  0  0  0  0  0  0  0
   -9.6356   -1.1313   -0.4401 C   0  0  0  0  0  0  0  0  0  0  0  0
   -7.7840    0.4416   -1.1170 C   0  0  0  0  0  0  0  0  0  0  0  0
   -6.4789    0.9248   -0.9869 C   0  0  0  0  0  0  0  0  0  0  0  0
   -2.9908    0.2294   -0.0358 C   0  0  0  0  0  0  0  0  0  0  0  0
   -2.7849   -1.1889   -0.4955 C   0  0  0  0  0  0  0  0  0  0  0  0
   -2.8460   -1.3142   -2.0127 C   0  0  0  0  0  0  0  0  0  0  0  0
   -0.0795    0.1265    1.4718 C   0  0  0  0  0  0  0  0  0  0  0  0
    1.4128   -0.1571    1.3649 C   0  0  0  0  0  0  0  0  0  0  0  0
    9.9391   -1.8811   -1.1415 H   0  0  0  0  0  0  0  0  0  0  0  0
    9.1139   -2.6419    0.2150 H   0  0  0  0  0  0  0  0  0  0  0  0
   10.5837   -1.6943    0.5110 H   0  0  0  0  0  0  0  0  0  0  0  0
    9.4340    0.3733   -0.2087 H   0  0  0  0  0  0  0  0  0  0  0  0
    8.5550   -0.3553    1.1431 H   0  0  0  0  0  0  0  0  0  0  0  0
    6.8361   -2.2554   -0.0180 H   0  0  0  0  0  0  0  0  0  0  0  0
    6.3407   -0.7622    0.8096 H   0  0  0  0  0  0  0  0  0  0  0  0
    5.7054   -1.4813   -2.0895 H   0  0  0  0  0  0  0  0  0  0  0  0
    4.5793   -1.7525   -0.7590 H   0  0  0  0  0  0  0  0  0  0  0  0
    4.6944    0.5079   -2.3637 H   0  0  0  0  0  0  0  0  0  0  0  0
    5.6447    1.0714   -0.9787 H   0  0  0  0  0  0  0  0  0  0  0  0
    2.7989    0.3710   -1.1074 H   0  0  0  0  0  0  0  0  0  0  0  0
    2.3477    1.5270    2.3073 H   0  0  0  0  0  0  0  0  0  0  0  0
    2.1014    2.9215   -0.0063 H   0  0  0  0  0  0  0  0  0  0  0  0
    0.9024    2.8832    1.2770 H   0  0  0  0  0  0  0  0  0  0  0  0
    0.8653    1.1300   -1.2245 H   0  0  0  0  0  0  0  0  0  0  0  0
   -0.1408    2.5213   -0.9318 H   0  0  0  0  0  0  0  0  0  0  0  0
   -5.4137   -1.1163    1.5248 H   0  0  0  0  0  0  0  0  0  0  0  0
   -7.7003   -1.9671    1.2855 H   0  0  0  0  0  0  0  0  0  0  0  0
   -9.6183   -2.0947   -0.9591 H   0  0  0  0  0  0  0  0  0  0  0  0
  -10.2669   -0.4426   -1.0100 H   0  0  0  0  0  0  0  0  0  0  0  0
  -10.0986   -1.2641    0.5432 H   0  0  0  0  0  0  0  0  0  0  0  0
   -8.4410    0.8891   -1.8622 H   0  0  0  0  0  0  0  0  0  0  0  0
   -6.1578    1.7349   -1.6422 H   0  0  0  0  0  0  0  0  0  0  0  0
   -3.5396   -1.8449   -0.0456 H   0  0  0  0  0  0  0  0  0  0  0  0
   -1.8181   -1.5705   -0.1503 H   0  0  0  0  0  0  0  0  0  0  0  0
   -2.1203   -0.6487   -2.4938 H   0  0  0  0  0  0  0  0  0  0  0  0
   -3.8403   -1.0571   -2.3922 H   0  0  0  0  0  0  0  0  0  0  0  0
   -2.6232   -2.3409   -2.3175 H   0  0  0  0  0  0  0  0  0  0  0  0
   -0.6090   -0.8194    1.6304 H   0  0  0  0  0  0  0  0  0  0  0  0
   -0.2773    0.7595    2.3478 H   0  0  0  0  0  0  0  0  0  0  0  0
    1.6053   -0.7954    0.4932 H   0  0  0  0  0  0  0  0  0  0  0  0
    1.7506   -0.7265    2.2401 H   0  0  0  0  0  0  0  0  0  0  0  0
  1  2  1  0
  2  3  1  0
  3  4  1  0
  4  5  1  0
  5  6  1  0
  6  7  1  0
  7  8  1  0
  8  9  2  0
  8 10  1  0
 10 11  1  0
 11 12  1  0
 12 13  1  0
 13 14  1  0
 14 15  2  0
 15 16  1  0
 16 17  2  0
 16 18  2  0
 16 19  1  0
 19 20  1  0
 20 21  2  0
 21 22  1  0
 22 23  2  0
 23 24  1  0
 23 25  1  0
 25 26  2  0
 19 27  2  0
 27 28  1  0
 28 29  1  0
 13 30  1  0
 30 31  1  0
 31 10  1  0
 27 14  1  0
 26 20  1  0
  1 32  1  0
  1 33  1  0
  1 34  1  0
  2 35  1  0
  2 36  1  0
  4 37  1  0
  4 38  1  0
  5 39  1  0
  5 40  1  0
  6 41  1  0
  6 42  1  0
  7 43  1  0
 10 44  1  0
 11 45  1  0
 11 46  1  0
 12 47  1  0
 12 48  1  0
 21 49  1  0
 22 50  1  0
 24 51  1  0
 24 52  1  0
 24 53  1  0
 25 54  1  0
 26 55  1  0
 28 56  1  0
 28 57  1  0
 29 58  1  0
 29 59  1  0
 29 60  1  0
 30 61  1  0
 30 62  1  0
 31 63  1  0
 31 64  1  0
M  END
$$$$
