
     RDKit          3D

 44 46  0  0  0  0  0  0  0  0999 V2000
    0.7813    0.2774    4.0001 C   0  0  0  0  0  0  0  0  0  0  0  0
   -0.2572    1.3608    3.7487 C   0  0  0  0  0  0  0  0  0  0  0  0
   -0.5913    1.5365    2.2680 C   0  0  0  0  0  0  0  0  0  0  0  0
   -1.2829    0.3475    1.7578 N   0  0  0  0  0  0  0  0  0  0  0  0
   -1.6199    0.2397    0.4047 C   0  0  0  0  0  0  0  0  0  0  0  0
   -0.8636   -0.3548   -0.5361 C   0  0  0  0  0  0  0  0  0  0  0  0
    0.4082   -0.9151   -0.1331 N   0  0  0  0  0  0  0  0  0  0  0  0
    1.6785    0.1910   -0.4389 S   0  0  0  0  0  6  0  0  0  0  0  0
    2.3602    0.4691    0.8065 O   0  0  0  0  0  0  0  0  0  0  0  0
    1.2108    1.2621   -1.2942 O   0  0  0  0  0  0  0  0  0  0  0  0
    2.7859   -0.8171   -1.4071 C   0  0  0  0  0  0  0  0  0  0  0  0
    2.7018   -0.7987   -2.8018 C   0  0  0  0  0  0  0  0  0  0  0  0
    3.5834   -1.5750   -3.5530 C   0  0  0  0  0  0  0  0  0  0  0  0
    4.5498   -2.3545   -2.9120 C   0  0  0  0  0  0  0  0  0  0  0  0
    4.6415   -2.3601   -1.5142 C   0  0  0  0  0  0  0  0  0  0  0  0
    5.6396   -3.1589   -0.8644 C   0  0  0  0  0  0  0  0  0  0  0  0
    6.4441   -3.8113   -0.3414 N   0  0  0  0  0  0  0  0  0  0  0  0
    3.7575   -1.5862   -0.7564 C   0  0  0  0  0  0  0  0  0  0  0  0
   -1.2798   -0.5709   -1.9399 C   0  0  0  0  0  0  0  0  0  0  0  0
   -0.5631   -1.2072   -2.7105 O   0  0  0  0  0  0  0  0  0  0  0  0
   -2.5050   -0.0620   -2.3151 O   0  0  0  0  0  0  0  0  0  0  0  0
   -3.3296    0.5781   -1.3727 C   0  0  0  0  0  0  0  0  0  0  0  0
   -4.5575    1.0349   -1.8586 C   0  0  0  0  0  0  0  0  0  0  0  0
   -5.4371    1.6802   -0.9965 C   0  0  0  0  0  0  0  0  0  0  0  0
   -5.0816    1.8655    0.3370 C   0  0  0  0  0  0  0  0  0  0  0  0
   -3.8470    1.4028    0.8106 C   0  0  0  0  0  0  0  0  0  0  0  0
   -2.9443    0.7412   -0.0381 C   0  0  0  0  0  0  0  0  0  0  0  0
    1.7243    0.5159    3.4999 H   0  0  0  0  0  0  0  0  0  0  0  0
    0.9832    0.1924    5.0727 H   0  0  0  0  0  0  0  0  0  0  0  0
    0.4380   -0.6989    3.6445 H   0  0  0  0  0  0  0  0  0  0  0  0
    0.1256    2.3105    4.1403 H   0  0  0  0  0  0  0  0  0  0  0  0
   -1.1670    1.1245    4.3135 H   0  0  0  0  0  0  0  0  0  0  0  0
   -1.2448    2.4096    2.1564 H   0  0  0  0  0  0  0  0  0  0  0  0
    0.3162    1.7406    1.6955 H   0  0  0  0  0  0  0  0  0  0  0  0
   -2.0927    0.1482    2.3428 H   0  0  0  0  0  0  0  0  0  0  0  0
    0.5907   -1.7561   -0.6884 H   0  0  0  0  0  0  0  0  0  0  0  0
    1.9539   -0.1914   -3.3096 H   0  0  0  0  0  0  0  0  0  0  0  0
    3.5188   -1.5709   -4.6394 H   0  0  0  0  0  0  0  0  0  0  0  0
    5.2333   -2.9542   -3.5116 H   0  0  0  0  0  0  0  0  0  0  0  0
    3.8277   -1.5786    0.3310 H   0  0  0  0  0  0  0  0  0  0  0  0
   -4.8229    0.8891   -2.9022 H   0  0  0  0  0  0  0  0  0  0  0  0
   -6.3945    2.0420   -1.3627 H   0  0  0  0  0  0  0  0  0  0  0  0
   -5.7634    2.3766    1.0132 H   0  0  0  0  0  0  0  0  0  0  0  0
   -3.6091    1.5855    1.8546 H   0  0  0  0  0  0  0  0  0  0  0  0
  1  2  1  0
  2  3  1  0
  3  4  1  0
  4  5  1  0
  5  6  2  0
  6  7  1  0
  7  8  1  0
  8  9  2  0
  8 10  2  0
  8 11  1  0
 11 12  2  0
 12 13  1  0
 13 14  2  0
 14 15  1  0
 15 16  1  0
 16 17  3  0
 15 18  2  0
  6 19  1  0
 19 20  2  0
 19 21  1  0
 21 22  1  0
 22 23  2  0
 23 24  1  0
 24 25  2  0
 25 26  1  0
 26 27  2  0
 27  5  1  0
 18 11  1  0
 27 22  1  0
  1 28  1  0
  1 29  1  0
  1 30  1  0
  2 31  1  0
  2 32  1  0
  3 33  1  0
  3 34  1  0
  4 35  1  0
  7 36  1  0
 12 37  1  0
 13 38  1  0
 14 39  1  0
 18 40  1  0
 23 41  1  0
 24 42  1  0
 25 43  1  0
 26 44  1  0
M  END
$$$$
