
     RDKit          3D

 62 65  0  0  0  0  0  0  0  0999 V2000
   -9.1777   -0.7603    1.3953 C   0  0  0  0  0  0  0  0  0  0  0  0
   -7.7575   -0.3727    1.0888 C   0  0  0  0  0  0  0  0  0  0  0  0
   -6.7104   -0.9977    1.7780 C   0  0  0  0  0  0  0  0  0  0  0  0
   -5.3804   -0.6598    1.5153 C   0  0  0  0  0  0  0  0  0  0  0  0
   -5.0647    0.3068    0.5558 C   0  0  0  0  0  0  0  0  0  0  0  0
   -3.6953    0.5716    0.3403 N   0  0  0  0  0  0  0  0  0  0  0  0
   -3.1346    1.4706   -0.5542 C   0  0  0  0  0  0  0  0  0  0  0  0
   -3.7450    2.2391   -1.2899 O   0  0  0  0  0  0  0  0  0  0  0  0
   -1.6090    1.4004   -0.5667 C   0  0  0  0  0  0  0  0  0  0  0  0
   -0.9856    2.5854   -1.3176 C   0  0  0  0  0  0  0  0  0  0  0  0
    0.5343    2.4505   -1.3997 C   0  0  0  0  0  0  0  0  0  0  0  0
    0.9617    1.0969   -1.9626 C   0  0  0  0  0  0  0  0  0  0  0  0
    0.3025   -0.0254   -1.2526 N   0  0  0  0  0  0  0  0  0  0  0  0
    1.0392   -0.6020    0.1624 S   0  0  0  0  0  6  0  0  0  0  0  0
    1.3951    0.5233    0.9988 O   0  0  0  0  0  0  0  0  0  0  0  0
    0.2503   -1.7017    0.6747 O   0  0  0  0  0  0  0  0  0  0  0  0
    2.5413   -1.3295   -0.2865 C   0  0  0  0  0  0  0  0  0  0  0  0
    2.6974   -2.4146   -1.1205 C   0  0  0  0  0  0  0  0  0  0  0  0
    4.0384   -2.6478   -1.2384 N   0  0  0  0  0  0  0  0  0  0  0  0
    4.7697   -1.7433   -0.4851 C   0  0  0  0  0  0  0  0  0  0  0  0
    6.2212   -1.8231   -0.4980 C   0  0  0  0  0  0  0  0  0  0  0  0
    6.7768   -2.5404   -1.3330 O   0  0  0  0  0  0  0  0  0  0  0  0
    6.9764   -1.1104    0.4154 N   0  0  0  0  0  0  0  0  0  0  0  0
    6.5385   -0.3593    1.5816 C   0  0  0  0  0  0  0  0  0  0  0  0
    7.7998   -0.1602    2.4151 C   0  0  0  0  0  0  0  0  0  0  0  0
    8.9039   -0.1447    1.3662 C   0  0  0  0  0  0  0  0  0  0  0  0
    8.4266   -1.1857    0.3645 C   0  0  0  0  0  0  0  0  0  0  0  0
    3.8386   -0.8995    0.1031 C   0  0  0  0  0  0  0  0  0  0  0  0
   -1.1759    0.0951   -1.2301 C   0  0  0  0  0  0  0  0  0  0  0  0
   -6.1048    0.9364   -0.1285 C   0  0  0  0  0  0  0  0  0  0  0  0
   -7.4517    0.6166    0.1348 C   0  0  0  0  0  0  0  0  0  0  0  0
   -8.5349    1.3401   -0.6217 C   0  0  0  0  0  0  0  0  0  0  0  0
   -9.6954   -1.0714    0.4820 H   0  0  0  0  0  0  0  0  0  0  0  0
   -9.7112    0.0814    1.8494 H   0  0  0  0  0  0  0  0  0  0  0  0
   -9.2222   -1.5989    2.0987 H   0  0  0  0  0  0  0  0  0  0  0  0
   -6.9204   -1.7549    2.5307 H   0  0  0  0  0  0  0  0  0  0  0  0
   -4.5989   -1.1675    2.0738 H   0  0  0  0  0  0  0  0  0  0  0  0
   -3.0578    0.0434    0.9260 H   0  0  0  0  0  0  0  0  0  0  0  0
   -1.2639    1.4320    0.4746 H   0  0  0  0  0  0  0  0  0  0  0  0
   -1.2449    3.5258   -0.8163 H   0  0  0  0  0  0  0  0  0  0  0  0
   -1.3943    2.6510   -2.3345 H   0  0  0  0  0  0  0  0  0  0  0  0
    0.9399    3.2525   -2.0273 H   0  0  0  0  0  0  0  0  0  0  0  0
    0.9600    2.5956   -0.4009 H   0  0  0  0  0  0  0  0  0  0  0  0
    0.6896    1.0294   -3.0237 H   0  0  0  0  0  0  0  0  0  0  0  0
    2.0514    0.9957   -1.9218 H   0  0  0  0  0  0  0  0  0  0  0  0
    1.9707   -3.0279   -1.6361 H   0  0  0  0  0  0  0  0  0  0  0  0
    4.4721   -3.3744   -1.7970 H   0  0  0  0  0  0  0  0  0  0  0  0
    5.7652   -0.8981    2.1371 H   0  0  0  0  0  0  0  0  0  0  0  0
    6.1537    0.6064    1.2358 H   0  0  0  0  0  0  0  0  0  0  0  0
    7.7671    0.7550    3.0154 H   0  0  0  0  0  0  0  0  0  0  0  0
    7.9425   -1.0116    3.0941 H   0  0  0  0  0  0  0  0  0  0  0  0
    8.9558    0.8444    0.8952 H   0  0  0  0  0  0  0  0  0  0  0  0
    9.8874   -0.3806    1.7798 H   0  0  0  0  0  0  0  0  0  0  0  0
    8.7240   -2.1962    0.6718 H   0  0  0  0  0  0  0  0  0  0  0  0
    8.7940   -1.0011   -0.6509 H   0  0  0  0  0  0  0  0  0  0  0  0
    4.0372   -0.0450    0.7355 H   0  0  0  0  0  0  0  0  0  0  0  0
   -1.5405    0.0488   -2.2647 H   0  0  0  0  0  0  0  0  0  0  0  0
   -1.6158   -0.7778   -0.7367 H   0  0  0  0  0  0  0  0  0  0  0  0
   -5.8954    1.6984   -0.8749 H   0  0  0  0  0  0  0  0  0  0  0  0
   -9.0486    0.6515   -1.3009 H   0  0  0  0  0  0  0  0  0  0  0  0
   -8.1271    2.1605   -1.2218 H   0  0  0  0  0  0  0  0  0  0  0  0
   -9.2585    1.7787    0.0721 H   0  0  0  0  0  0  0  0  0  0  0  0
  1  2  1  0
  2  3  2  0
  3  4  1  0
  4  5  2  0
  5  6  1  0
  6  7  1  0
  7  8  2  0
  7  9  1  0
  9 10  1  0
 10 11  1  0
 11 12  1  0
 12 13  1  0
 13 14  1  0
 14 15  2  0
 14 16  2  0
 14 17  1  0
 17 18  2  0
 18 19  1  0
 19 20  1  0
 20 21  1  0
 21 22  2  0
 21 23  1  0
 23 24  1  0
 24 25  1  0
 25 26  1  0
 26 27  1  0
 20 28  2  0
 13 29  1  0
  5 30  1  0
 30 31  2  0
 31 32  1  0
 31  2  1  0
 29  9  1  0
 28 17  1  0
 27 23  1  0
  1 33  1  0
  1 34  1  0
  1 35  1  0
  3 36  1  0
  4 37  1  0
  6 38  1  0
  9 39  1  0
 10 40  1  0
 10 41  1  0
 11 42  1  0
 11 43  1  0
 12 44  1  0
 12 45  1  0
 18 46  1  0
 19 47  1  0
 24 48  1  0
 24 49  1  0
 25 50  1  0
 25 51  1  0
 26 52  1  0
 26 53  1  0
 27 54  1  0
 27 55  1  0
 28 56  1  0
 29 57  1  0
 29 58  1  0
 30 59  1  0
 32 60  1  0
 32 61  1  0
 32 62  1  0
M  END
$$$$
