
     RDKit          3D

 50 51  0  0  0  0  0  0  0  0999 V2000
    5.8099   -2.9265    0.0986 C   0  0  0  0  0  0  0  0  0  0  0  0
    4.6227   -2.4983    0.7532 O   0  0  0  0  0  0  0  0  0  0  0  0
    4.1713   -1.2395    0.2452 C   0  0  0  0  0  0  0  0  0  0  0  0
    2.8732   -0.8592    0.9578 C   0  0  0  0  0  0  0  0  0  0  0  0
    2.4165    0.4894    0.6718 N   0  0  0  0  0  0  0  0  0  0  0  0
    1.9154    0.8221   -0.5690 C   0  0  0  0  0  0  0  0  0  0  0  0
    1.9324    0.0557   -1.5292 O   0  0  0  0  0  0  0  0  0  0  0  0
    1.3948    2.2418   -0.6914 C   0  0  0  0  0  0  0  0  0  0  0  0
    0.0800    2.6209    0.5120 S   0  0  0  0  0  0  0  0  0  0  0  0
   -1.1687    1.4057    0.0244 C   0  0  0  0  0  0  0  0  0  0  0  0
   -2.0010    1.6943   -1.0854 C   0  0  0  0  0  0  0  0  0  0  0  0
   -1.9541    2.9765   -1.9103 C   0  0  0  0  0  0  0  0  0  0  0  0
   -1.6868    2.6938   -3.3941 C   0  0  0  0  0  0  0  0  0  0  0  0
   -3.2393    3.7947   -1.7383 C   0  0  0  0  0  0  0  0  0  0  0  0
   -2.9502    0.7326   -1.4148 C   0  0  0  0  0  0  0  0  0  0  0  0
   -3.1286   -0.4257   -0.7560 N   0  0  0  0  0  0  0  0  0  0  0  0
   -2.3410   -0.6890    0.3117 C   0  0  0  0  0  0  0  0  0  0  0  0
   -1.3594    0.1925    0.7464 C   0  0  0  0  0  0  0  0  0  0  0  0
   -0.5875   -0.2109    1.9502 C   0  0  0  0  0  0  0  0  0  0  0  0
    0.2232    0.5493    2.4759 O   0  0  0  0  0  0  0  0  0  0  0  0
   -0.8157   -1.4825    2.4631 N   0  0  0  0  0  0  0  0  0  0  0  0
   -0.0363   -1.9026    3.6162 C   0  0  0  0  0  0  0  0  0  0  0  0
   -1.8407   -2.3220    2.0625 C   0  0  0  0  0  0  0  0  0  0  0  0
   -2.0813   -3.3753    2.6560 O   0  0  0  0  0  0  0  0  0  0  0  0
   -2.5782   -1.9084    0.9782 N   0  0  0  0  0  0  0  0  0  0  0  0
   -3.6528   -2.7524    0.4724 C   0  0  0  0  0  0  0  0  0  0  0  0
    5.6287   -3.0653   -0.9715 H   0  0  0  0  0  0  0  0  0  0  0  0
    6.6158   -2.2029    0.2544 H   0  0  0  0  0  0  0  0  0  0  0  0
    6.1131   -3.8850    0.5283 H   0  0  0  0  0  0  0  0  0  0  0  0
    4.0129   -1.3155   -0.8360 H   0  0  0  0  0  0  0  0  0  0  0  0
    4.9382   -0.4785    0.4322 H   0  0  0  0  0  0  0  0  0  0  0  0
    3.0142   -0.9287    2.0424 H   0  0  0  0  0  0  0  0  0  0  0  0
    2.0777   -1.5662    0.6949 H   0  0  0  0  0  0  0  0  0  0  0  0
    1.9708    0.9753    1.4529 H   0  0  0  0  0  0  0  0  0  0  0  0
    1.0265    2.4006   -1.7089 H   0  0  0  0  0  0  0  0  0  0  0  0
    2.2300    2.9307   -0.5294 H   0  0  0  0  0  0  0  0  0  0  0  0
   -1.1386    3.6236   -1.5797 H   0  0  0  0  0  0  0  0  0  0  0  0
   -2.5110    2.1505   -3.8681 H   0  0  0  0  0  0  0  0  0  0  0  0
   -0.7758    2.0989   -3.5220 H   0  0  0  0  0  0  0  0  0  0  0  0
   -1.5539    3.6321   -3.9439 H   0  0  0  0  0  0  0  0  0  0  0  0
   -3.1615    4.7486   -2.2714 H   0  0  0  0  0  0  0  0  0  0  0  0
   -3.4229    4.0159   -0.6810 H   0  0  0  0  0  0  0  0  0  0  0  0
   -4.1181    3.2693   -2.1277 H   0  0  0  0  0  0  0  0  0  0  0  0
   -3.6348    0.8702   -2.2491 H   0  0  0  0  0  0  0  0  0  0  0  0
    0.9288   -1.3901    3.6590 H   0  0  0  0  0  0  0  0  0  0  0  0
   -0.6057   -1.6666    4.5208 H   0  0  0  0  0  0  0  0  0  0  0  0
    0.1458   -2.9814    3.5848 H   0  0  0  0  0  0  0  0  0  0  0  0
   -3.4378   -3.0346   -0.5636 H   0  0  0  0  0  0  0  0  0  0  0  0
   -3.7596   -3.6713    1.0555 H   0  0  0  0  0  0  0  0  0  0  0  0
   -4.6007   -2.2068    0.5257 H   0  0  0  0  0  0  0  0  0  0  0  0
  1  2  1  0
  2  3  1  0
  3  4  1  0
  4  5  1  0
  5  6  1  0
  6  7  2  0
  6  8  1  0
  8  9  1  0
  9 10  1  0
 10 11  2  0
 11 12  1  0
 12 13  1  0
 12 14  1  0
 11 15  1  0
 15 16  2  0
 16 17  1  0
 17 18  2  0
 18 19  1  0
 19 20  2  0
 19 21  1  0
 21 22  1  0
 21 23  1  0
 23 24  2  0
 23 25  1  0
 25 26  1  0
 18 10  1  0
 25 17  1  0
  1 27  1  0
  1 28  1  0
  1 29  1  0
  3 30  1  0
  3 31  1  0
  4 32  1  0
  4 33  1  0
  5 34  1  0
  8 35  1  0
  8 36  1  0
 12 37  1  0
 13 38  1  0
 13 39  1  0
 13 40  1  0
 14 41  1  0
 14 42  1  0
 14 43  1  0
 15 44  1  0
 22 45  1  0
 22 46  1  0
 22 47  1  0
 26 48  1  0
 26 49  1  0
 26 50  1  0
M  END
$$$$
