
     RDKit          3D

 54 55  0  0  0  0  0  0  0  0999 V2000
   -5.5572    1.3356    1.4759 C   0  0  0  0  0  0  0  0  0  0  0  0
   -4.3274    0.4935    1.1837 C   0  0  0  0  0  0  0  0  0  0  0  0
   -4.5595   -0.3182   -0.0361 N   0  0  0  0  0  0  0  0  0  0  0  0
   -4.5840   -1.7824    0.1799 C   0  0  0  0  0  0  0  0  0  0  0  0
   -5.8445   -2.1929    0.9259 C   0  0  0  0  0  0  0  0  0  0  0  0
   -3.8442    0.2499   -1.4727 S   0  0  0  0  0  6  0  0  0  0  0  0
   -4.2121   -0.6231   -2.5649 O   0  0  0  0  0  0  0  0  0  0  0  0
   -4.0644    1.6773   -1.5504 O   0  0  0  0  0  0  0  0  0  0  0  0
   -2.1243    0.0684   -1.3386 C   0  0  0  0  0  0  0  0  0  0  0  0
   -1.1922    1.1094   -1.0911 C   0  0  0  0  0  0  0  0  0  0  0  0
   -1.4135    2.5730   -0.9368 C   0  0  0  0  0  0  0  0  0  0  0  0
    0.0563    0.6373   -0.9923 N   0  0  0  0  0  0  0  0  0  0  0  0
   -0.0639   -0.7002   -1.1957 N   0  0  0  0  0  0  0  0  0  0  0  0
    1.2686   -1.8164   -1.1527 S   0  0  0  0  0  6  0  0  0  0  0  0
    1.4852   -2.2124   -2.5324 O   0  0  0  0  0  0  0  0  0  0  0  0
    0.9128   -2.7792   -0.1237 O   0  0  0  0  0  0  0  0  0  0  0  0
    2.6584   -0.8711   -0.6021 C   0  0  0  0  0  0  0  0  0  0  0  0
    3.3275   -0.0418   -1.5047 C   0  0  0  0  0  0  0  0  0  0  0  0
    4.4413    0.6840   -1.0772 C   0  0  0  0  0  0  0  0  0  0  0  0
    4.9021    0.5809    0.2455 C   0  0  0  0  0  0  0  0  0  0  0  0
    6.1173    1.3815    0.6829 C   0  0  0  0  0  0  0  0  0  0  0  0
    7.2614    0.4701    1.1341 C   0  0  0  0  0  0  0  0  0  0  0  0
    5.7604    2.3902    1.7771 C   0  0  0  0  0  0  0  0  0  0  0  0
    4.2224   -0.2689    1.1338 C   0  0  0  0  0  0  0  0  0  0  0  0
    3.1071   -0.9971    0.7141 C   0  0  0  0  0  0  0  0  0  0  0  0
   -1.3695   -1.0955   -1.4429 C   0  0  0  0  0  0  0  0  0  0  0  0
   -1.7452   -2.5032   -1.7431 C   0  0  0  0  0  0  0  0  0  0  0  0
   -6.4375    0.7067    1.6438 H   0  0  0  0  0  0  0  0  0  0  0  0
   -5.7846    2.0099    0.6438 H   0  0  0  0  0  0  0  0  0  0  0  0
   -5.3969    1.9428    2.3724 H   0  0  0  0  0  0  0  0  0  0  0  0
   -4.1060   -0.1490    2.0435 H   0  0  0  0  0  0  0  0  0  0  0  0
   -3.4548    1.1427    1.0666 H   0  0  0  0  0  0  0  0  0  0  0  0
   -3.6928   -2.0991    0.7311 H   0  0  0  0  0  0  0  0  0  0  0  0
   -4.5908   -2.3131   -0.7758 H   0  0  0  0  0  0  0  0  0  0  0  0
   -5.8997   -3.2830    1.0016 H   0  0  0  0  0  0  0  0  0  0  0  0
   -5.8635   -1.7867    1.9416 H   0  0  0  0  0  0  0  0  0  0  0  0
   -6.7407   -1.8402    0.4056 H   0  0  0  0  0  0  0  0  0  0  0  0
   -1.8199    3.0004   -1.8592 H   0  0  0  0  0  0  0  0  0  0  0  0
   -0.4750    3.0960   -0.7199 H   0  0  0  0  0  0  0  0  0  0  0  0
   -2.1007    2.7804   -0.1108 H   0  0  0  0  0  0  0  0  0  0  0  0
    2.9923    0.0483   -2.5358 H   0  0  0  0  0  0  0  0  0  0  0  0
    4.9505    1.3321   -1.7883 H   0  0  0  0  0  0  0  0  0  0  0  0
    6.4844    1.9565   -0.1775 H   0  0  0  0  0  0  0  0  0  0  0  0
    7.5205   -0.2509    0.3509 H   0  0  0  0  0  0  0  0  0  0  0  0
    8.1575    1.0599    1.3568 H   0  0  0  0  0  0  0  0  0  0  0  0
    7.0038   -0.0954    2.0362 H   0  0  0  0  0  0  0  0  0  0  0  0
    6.6262    3.0153    2.0214 H   0  0  0  0  0  0  0  0  0  0  0  0
    4.9506    3.0517    1.4500 H   0  0  0  0  0  0  0  0  0  0  0  0
    5.4362    1.8954    2.6991 H   0  0  0  0  0  0  0  0  0  0  0  0
    4.5599   -0.3727    2.1631 H   0  0  0  0  0  0  0  0  0  0  0  0
    2.6047   -1.6562    1.4187 H   0  0  0  0  0  0  0  0  0  0  0  0
   -1.7382   -3.1037   -0.8283 H   0  0  0  0  0  0  0  0  0  0  0  0
   -2.7421   -2.5790   -2.1806 H   0  0  0  0  0  0  0  0  0  0  0  0
   -1.0616   -2.9573   -2.4657 H   0  0  0  0  0  0  0  0  0  0  0  0
  1  2  1  0
  2  3  1  0
  3  4  1  0
  4  5  1  0
  3  6  1  0
  6  7  2  0
  6  8  2  0
  6  9  1  0
  9 10  1  0
 10 11  1  0
 10 12  2  0
 12 13  1  0
 13 14  1  0
 14 15  2  0
 14 16  2  0
 14 17  1  0
 17 18  2  0
 18 19  1  0
 19 20  2  0
 20 21  1  0
 21 22  1  0
 21 23  1  0
 20 24  1  0
 24 25  2  0
 13 26  1  0
 26 27  1  0
 26  9  2  0
 25 17  1  0
  1 28  1  0
  1 29  1  0
  1 30  1  0
  2 31  1  0
  2 32  1  0
  4 33  1  0
  4 34  1  0
  5 35  1  0
  5 36  1  0
  5 37  1  0
 11 38  1  0
 11 39  1  0
 11 40  1  0
 18 41  1  0
 19 42  1  0
 21 43  1  0
 22 44  1  0
 22 45  1  0
 22 46  1  0
 23 47  1  0
 23 48  1  0
 23 49  1  0
 24 50  1  0
 25 51  1  0
 27 52  1  0
 27 53  1  0
 27 54  1  0
M  END
$$$$
