
     RDKit          3D

 56 59  0  0  0  0  0  0  0  0999 V2000
    8.5254    2.3828    1.8827 C   0  0  0  0  0  0  0  0  0  0  0  0
    7.5195    1.6505    2.5707 O   0  0  0  0  0  0  0  0  0  0  0  0
    6.3034    1.5439    1.9536 C   0  0  0  0  0  0  0  0  0  0  0  0
    5.9499    2.1151    0.7317 C   0  0  0  0  0  0  0  0  0  0  0  0
    4.6632    1.9296    0.2127 C   0  0  0  0  0  0  0  0  0  0  0  0
    3.7115    1.1761    0.9116 C   0  0  0  0  0  0  0  0  0  0  0  0
    2.3218    0.9788    0.3524 C   0  0  0  0  0  0  0  0  0  0  0  0
    2.1445   -0.2969   -0.4667 C   0  0  0  0  0  0  0  0  0  0  0  0
    3.1023   -0.9313   -0.9105 O   0  0  0  0  0  0  0  0  0  0  0  0
    0.8301   -0.7046   -0.7074 N   0  0  0  0  0  0  0  0  0  0  0  0
   -0.3554    0.0651   -0.3351 C   0  0  0  0  0  0  0  0  0  0  0  0
   -1.5360   -0.2101   -1.2584 C   0  0  0  0  0  0  0  0  0  0  0  0
   -1.8695   -1.7021   -1.3612 C   0  0  0  0  0  0  0  0  0  0  0  0
   -0.7110   -2.6207   -0.9666 C   0  0  0  0  0  0  0  0  0  0  0  0
    0.6184   -1.9938   -1.3663 C   0  0  0  0  0  0  0  0  0  0  0  0
   -2.1196   -1.9605   -2.7719 O   0  0  0  0  0  0  0  0  0  0  0  0
   -3.5365   -1.9325   -2.9622 C   0  0  0  0  0  0  0  0  0  0  0  0
   -4.0901   -2.5322   -1.6926 C   0  0  0  0  0  0  0  0  0  0  0  0
   -3.1179   -2.1022   -0.6952 N   0  0  0  0  0  0  0  0  0  0  0  0
   -3.5293   -1.8713    0.8941 S   0  0  0  0  0  6  0  0  0  0  0  0
   -2.3196   -1.7193    1.6711 O   0  0  0  0  0  0  0  0  0  0  0  0
   -4.5270   -2.8601    1.2431 O   0  0  0  0  0  0  0  0  0  0  0  0
   -4.3634   -0.2930    0.9163 C   0  0  0  0  0  0  0  0  0  0  0  0
   -3.7113    0.8358    1.4271 C   0  0  0  0  0  0  0  0  0  0  0  0
   -4.3800    2.0620    1.4690 C   0  0  0  0  0  0  0  0  0  0  0  0
   -5.6999    2.1486    1.0262 C   0  0  0  0  0  0  0  0  0  0  0  0
   -6.5190    3.6601    1.0741 Cl  0  0  0  0  0  0  0  0  0  0  0  0
   -6.3647    1.0160    0.5555 C   0  0  0  0  0  0  0  0  0  0  0  0
   -5.7008   -0.2123    0.5115 C   0  0  0  0  0  0  0  0  0  0  0  0
    4.0759    0.5937    2.1315 C   0  0  0  0  0  0  0  0  0  0  0  0
    5.3603    0.7831    2.6470 C   0  0  0  0  0  0  0  0  0  0  0  0
    9.4339    2.3558    2.4914 H   0  0  0  0  0  0  0  0  0  0  0  0
    8.7595    1.9235    0.9166 H   0  0  0  0  0  0  0  0  0  0  0  0
    8.2362    3.4319    1.7615 H   0  0  0  0  0  0  0  0  0  0  0  0
    6.6506    2.7068    0.1525 H   0  0  0  0  0  0  0  0  0  0  0  0
    4.4132    2.3727   -0.7487 H   0  0  0  0  0  0  0  0  0  0  0  0
    1.6176    0.9766    1.1927 H   0  0  0  0  0  0  0  0  0  0  0  0
    2.0644    1.8323   -0.2868 H   0  0  0  0  0  0  0  0  0  0  0  0
   -0.1273    1.1348   -0.3664 H   0  0  0  0  0  0  0  0  0  0  0  0
   -0.5881   -0.1838    0.7031 H   0  0  0  0  0  0  0  0  0  0  0  0
   -2.4028    0.3826   -0.9574 H   0  0  0  0  0  0  0  0  0  0  0  0
   -1.2676    0.1726   -2.2541 H   0  0  0  0  0  0  0  0  0  0  0  0
   -0.6965   -2.8093    0.1122 H   0  0  0  0  0  0  0  0  0  0  0  0
   -0.8101   -3.5970   -1.4579 H   0  0  0  0  0  0  0  0  0  0  0  0
    1.4360   -2.6777   -1.1125 H   0  0  0  0  0  0  0  0  0  0  0  0
    0.6619   -1.8197   -2.4481 H   0  0  0  0  0  0  0  0  0  0  0  0
   -3.8504   -0.8903   -3.0888 H   0  0  0  0  0  0  0  0  0  0  0  0
   -3.8099   -2.4985   -3.8567 H   0  0  0  0  0  0  0  0  0  0  0  0
   -4.0784   -3.6258   -1.7427 H   0  0  0  0  0  0  0  0  0  0  0  0
   -5.1095   -2.1941   -1.5099 H   0  0  0  0  0  0  0  0  0  0  0  0
   -2.6923    0.7719    1.8023 H   0  0  0  0  0  0  0  0  0  0  0  0
   -3.8724    2.9414    1.8589 H   0  0  0  0  0  0  0  0  0  0  0  0
   -7.4024    1.0813    0.2363 H   0  0  0  0  0  0  0  0  0  0  0  0
   -6.2386   -1.0982    0.1821 H   0  0  0  0  0  0  0  0  0  0  0  0
    3.3672   -0.0150    2.6881 H   0  0  0  0  0  0  0  0  0  0  0  0
    5.6308    0.3268    3.5952 H   0  0  0  0  0  0  0  0  0  0  0  0
  1  2  1  0
  2  3  1  0
  3  4  2  0
  4  5  1  0
  5  6  2  0
  6  7  1  0
  7  8  1  0
  8  9  2  0
  8 10  1  0
 10 11  1  0
 11 12  1  0
 12 13  1  0
 13 14  1  0
 14 15  1  0
 13 16  1  0
 16 17  1  0
 17 18  1  0
 18 19  1  0
 19 20  1  0
 20 21  2  0
 20 22  2  0
 20 23  1  0
 23 24  2  0
 24 25  1  0
 25 26  2  0
 26 27  1  0
 26 28  1  0
 28 29  2  0
  6 30  1  0
 30 31  2  0
 31  3  1  0
 15 10  1  0
 29 23  1  0
 19 13  1  0
  1 32  1  0
  1 33  1  0
  1 34  1  0
  4 35  1  0
  5 36  1  0
  7 37  1  0
  7 38  1  0
 11 39  1  0
 11 40  1  0
 12 41  1  0
 12 42  1  0
 14 43  1  0
 14 44  1  0
 15 45  1  0
 15 46  1  0
 17 47  1  0
 17 48  1  0
 18 49  1  0
 18 50  1  0
 24 51  1  0
 25 52  1  0
 28 53  1  0
 29 54  1  0
 30 55  1  0
 31 56  1  0
M  END
$$$$
