
     RDKit          3D

 42 44  0  0  0  0  0  0  0  0999 V2000
    4.0031    3.0105   -0.5855 C   0  0  0  0  0  0  0  0  0  0  0  0
    2.9335    1.9564   -0.3194 C   0  0  0  0  0  0  0  0  0  0  0  0
    3.3894    0.5888    0.1597 C   0  0  0  0  0  0  0  0  0  0  0  0
    4.7562    0.3132    0.3595 C   0  0  0  0  0  0  0  0  0  0  0  0
    5.1875   -0.9386    0.7983 C   0  0  0  0  0  0  0  0  0  0  0  0
    4.2613   -1.9420    1.0417 C   0  0  0  0  0  0  0  0  0  0  0  0
    2.9017   -1.6943    0.8517 C   0  0  0  0  0  0  0  0  0  0  0  0
    2.4469   -0.4390    0.4247 C   0  0  0  0  0  0  0  0  0  0  0  0
    1.0685   -0.1869    0.2103 N   0  0  0  0  0  0  0  0  0  0  0  0
   -0.0034   -0.9391    0.6442 C   0  0  0  0  0  0  0  0  0  0  0  0
    0.0737   -1.8619    1.4508 O   0  0  0  0  0  0  0  0  0  0  0  0
   -1.2312   -0.5568    0.0911 N   0  0  0  0  0  0  0  0  0  0  0  0
   -1.3708    0.4303   -0.9976 C   0  0  0  0  0  0  0  0  0  0  0  0
   -2.7060    0.3980   -1.7335 C   0  0  0  0  0  0  0  0  0  0  0  0
   -3.7722    0.3742   -0.7570 N   0  0  0  0  0  0  0  0  0  0  0  0
   -4.9520    1.0531   -0.7840 C   0  0  0  0  0  0  0  0  0  0  0  0
   -5.6134    0.7699    0.3926 C   0  0  0  0  0  0  0  0  0  0  0  0
   -4.7918   -0.1083    1.1452 C   0  0  0  0  0  0  0  0  0  0  0  0
   -3.6502   -0.3424    0.4042 C   0  0  0  0  0  0  0  0  0  0  0  0
   -2.4394   -1.1925    0.6592 C   0  0  0  0  0  0  0  0  0  0  0  0
   -2.6499   -2.6006    0.0905 C   0  0  0  0  0  0  0  0  0  0  0  0
    4.7002    2.6848   -1.3647 H   0  0  0  0  0  0  0  0  0  0  0  0
    3.5348    3.9401   -0.9258 H   0  0  0  0  0  0  0  0  0  0  0  0
    4.5738    3.2385    0.3208 H   0  0  0  0  0  0  0  0  0  0  0  0
    2.2478    2.3689    0.4313 H   0  0  0  0  0  0  0  0  0  0  0  0
    2.3711    1.8205   -1.2517 H   0  0  0  0  0  0  0  0  0  0  0  0
    5.5169    1.0679    0.1786 H   0  0  0  0  0  0  0  0  0  0  0  0
    6.2473   -1.1285    0.9469 H   0  0  0  0  0  0  0  0  0  0  0  0
    4.5897   -2.9218    1.3782 H   0  0  0  0  0  0  0  0  0  0  0  0
    2.2134   -2.5138    1.0366 H   0  0  0  0  0  0  0  0  0  0  0  0
    0.8322    0.7440   -0.0820 H   0  0  0  0  0  0  0  0  0  0  0  0
   -0.5568    0.2907   -1.7177 H   0  0  0  0  0  0  0  0  0  0  0  0
   -1.2347    1.4159   -0.5338 H   0  0  0  0  0  0  0  0  0  0  0  0
   -2.8253    1.2773   -2.3739 H   0  0  0  0  0  0  0  0  0  0  0  0
   -2.8087   -0.5062   -2.3426 H   0  0  0  0  0  0  0  0  0  0  0  0
   -5.2321    1.6802   -1.6200 H   0  0  0  0  0  0  0  0  0  0  0  0
   -6.5831    1.1550    0.6805 H   0  0  0  0  0  0  0  0  0  0  0  0
   -5.0130   -0.5276    2.1186 H   0  0  0  0  0  0  0  0  0  0  0  0
   -2.2986   -1.2765    1.7447 H   0  0  0  0  0  0  0  0  0  0  0  0
   -1.7991   -3.2532    0.3104 H   0  0  0  0  0  0  0  0  0  0  0  0
   -3.5458   -3.0655    0.5172 H   0  0  0  0  0  0  0  0  0  0  0  0
   -2.7715   -2.5827   -0.9983 H   0  0  0  0  0  0  0  0  0  0  0  0
  1  2  1  0
  2  3  1  0
  3  4  2  0
  4  5  1  0
  5  6  2  0
  6  7  1  0
  7  8  2  0
  8  9  1  0
  9 10  1  0
 10 11  2  0
 10 12  1  0
 12 13  1  0
 13 14  1  0
 14 15  1  0
 15 16  1  0
 16 17  2  0
 17 18  1  0
 18 19  2  0
 19 20  1  0
 20 21  1  0
  8  3  1  0
 20 12  1  0
 19 15  1  0
  1 22  1  0
  1 23  1  0
  1 24  1  0
  2 25  1  0
  2 26  1  0
  4 27  1  0
  5 28  1  0
  6 29  1  0
  7 30  1  0
  9 31  1  0
 13 32  1  0
 13 33  1  0
 14 34  1  0
 14 35  1  0
 16 36  1  0
 17 37  1  0
 18 38  1  0
 20 39  1  0
 21 40  1  0
 21 41  1  0
 21 42  1  0
M  END
$$$$
