
     RDKit          3D

 50 53  0  0  0  0  0  0  0  0999 V2000
    3.5275   -1.7748    2.2770 O   0  0  0  0  0  0  0  0  0  0  0  0
    3.1082   -0.7147    1.8218 C   0  0  0  0  0  0  0  0  0  0  0  0
    3.9134    0.3726    1.5575 N   0  0  0  0  0  0  0  0  0  0  0  0
    5.3572    0.2902    1.5883 C   0  0  0  0  0  0  0  0  0  0  0  0
    5.9508   -0.3250    0.3184 C   0  0  0  0  0  0  0  0  0  0  0  0
    5.8249    0.5854   -0.8518 C   0  0  0  0  0  0  0  0  0  0  0  0
    6.6866    1.4756   -1.4578 C   0  0  0  0  0  0  0  0  0  0  0  0
    5.9724    2.0482   -2.5379 C   0  0  0  0  0  0  0  0  0  0  0  0
    4.7253    1.4697   -2.5224 C   0  0  0  0  0  0  0  0  0  0  0  0
    4.6269    0.5804   -1.5021 O   0  0  0  0  0  0  0  0  0  0  0  0
    1.6934   -0.4871    1.4894 C   0  0  0  0  0  0  0  0  0  0  0  0
    0.6244   -1.3922    1.6373 C   0  0  0  0  0  0  0  0  0  0  0  0
   -0.5233   -0.7406    1.2050 C   0  0  0  0  0  0  0  0  0  0  0  0
   -0.0737    0.4835    0.7808 N   0  0  0  0  0  0  0  0  0  0  0  0
    1.2526    0.6743    0.9752 N   0  0  0  0  0  0  0  0  0  0  0  0
   -0.7726    1.5960    0.1714 C   0  0  0  0  0  0  0  0  0  0  0  0
   -2.2596    1.4423   -0.0753 C   0  0  0  0  0  0  0  0  0  0  0  0
   -2.9586    0.9193    1.1637 C   0  0  0  0  0  0  0  0  0  0  0  0
   -2.9811   -0.5341    1.1678 N   0  0  0  0  0  0  0  0  0  0  0  0
   -4.2904   -1.1842    1.0815 C   0  0  0  0  0  0  0  0  0  0  0  0
   -4.8460   -1.1481   -0.3234 C   0  0  0  0  0  0  0  0  0  0  0  0
   -4.3327   -2.0051   -1.3111 C   0  0  0  0  0  0  0  0  0  0  0  0
   -4.8245   -1.9639   -2.6183 C   0  0  0  0  0  0  0  0  0  0  0  0
   -5.8339   -1.0639   -2.9526 C   0  0  0  0  0  0  0  0  0  0  0  0
   -6.3428   -0.2152   -1.9772 C   0  0  0  0  0  0  0  0  0  0  0  0
   -7.3111    0.6531   -2.2981 F   0  0  0  0  0  0  0  0  0  0  0  0
   -5.8620   -0.2481   -0.6717 C   0  0  0  0  0  0  0  0  0  0  0  0
   -1.8446   -1.3389    1.1883 C   0  0  0  0  0  0  0  0  0  0  0  0
   -1.9605   -2.5653    1.2149 O   0  0  0  0  0  0  0  0  0  0  0  0
    3.4619    1.1083    1.0184 H   0  0  0  0  0  0  0  0  0  0  0  0
    5.7352    1.3057    1.7497 H   0  0  0  0  0  0  0  0  0  0  0  0
    5.6462   -0.3192    2.4520 H   0  0  0  0  0  0  0  0  0  0  0  0
    7.0142   -0.5312    0.4899 H   0  0  0  0  0  0  0  0  0  0  0  0
    5.4721   -1.2849    0.0920 H   0  0  0  0  0  0  0  0  0  0  0  0
    7.7041    1.6841   -1.1579 H   0  0  0  0  0  0  0  0  0  0  0  0
    6.3229    2.7881   -3.2432 H   0  0  0  0  0  0  0  0  0  0  0  0
    3.8417    1.5745   -3.1360 H   0  0  0  0  0  0  0  0  0  0  0  0
    0.6776   -2.4035    2.0210 H   0  0  0  0  0  0  0  0  0  0  0  0
   -0.2674    1.8083   -0.7787 H   0  0  0  0  0  0  0  0  0  0  0  0
   -0.6044    2.4563    0.8325 H   0  0  0  0  0  0  0  0  0  0  0  0
   -2.6639    2.4278   -0.3361 H   0  0  0  0  0  0  0  0  0  0  0  0
   -2.4368    0.7883   -0.9376 H   0  0  0  0  0  0  0  0  0  0  0  0
   -2.4764    1.2629    2.0866 H   0  0  0  0  0  0  0  0  0  0  0  0
   -3.9880    1.2936    1.1876 H   0  0  0  0  0  0  0  0  0  0  0  0
   -4.2397   -2.2276    1.4136 H   0  0  0  0  0  0  0  0  0  0  0  0
   -4.9686   -0.6840    1.7841 H   0  0  0  0  0  0  0  0  0  0  0  0
   -3.5427   -2.7134   -1.0613 H   0  0  0  0  0  0  0  0  0  0  0  0
   -4.4193   -2.6349   -3.3717 H   0  0  0  0  0  0  0  0  0  0  0  0
   -6.2271   -1.0204   -3.9632 H   0  0  0  0  0  0  0  0  0  0  0  0
   -6.2878    0.4318    0.0598 H   0  0  0  0  0  0  0  0  0  0  0  0
  1  2  2  0
  2  3  1  0
  3  4  1  0
  4  5  1  0
  5  6  1  0
  6  7  2  0
  7  8  1  0
  8  9  2  0
  9 10  1  0
  2 11  1  0
 11 12  1  0
 12 13  2  0
 13 14  1  0
 14 15  1  0
 14 16  1  0
 16 17  1  0
 17 18  1  0
 18 19  1  0
 19 20  1  0
 20 21  1  0
 21 22  2  0
 22 23  1  0
 23 24  2  0
 24 25  1  0
 25 26  1  0
 25 27  2  0
 19 28  1  0
 28 29  2  0
 10  6  1  0
 15 11  2  0
 27 21  1  0
 28 13  1  0
  3 30  1  0
  4 31  1  0
  4 32  1  0
  5 33  1  0
  5 34  1  0
  7 35  1  0
  8 36  1  0
  9 37  1  0
 12 38  1  0
 16 39  1  0
 16 40  1  0
 17 41  1  0
 17 42  1  0
 18 43  1  0
 18 44  1  0
 20 45  1  0
 20 46  1  0
 22 47  1  0
 23 48  1  0
 24 49  1  0
 27 50  1  0
M  END
$$$$
