
     RDKit          3D

 36 38  0  0  0  0  0  0  0  0999 V2000
   -6.0395   -0.0565    0.4001 C   0  0  0  0  0  0  0  0  0  0  0  0
   -4.5535   -0.0111    0.6063 C   0  0  0  0  0  0  0  0  0  0  0  0
   -3.9553   -0.7724    1.6126 C   0  0  0  0  0  0  0  0  0  0  0  0
   -2.5716   -0.7452    1.7859 C   0  0  0  0  0  0  0  0  0  0  0  0
   -1.7675    0.0330    0.9394 C   0  0  0  0  0  0  0  0  0  0  0  0
   -0.0051    0.0195    1.2296 S   0  0  0  0  0  6  0  0  0  0  0  0
    0.2562   -0.8232    2.3795 O   0  0  0  0  0  0  0  0  0  0  0  0
    0.4795    1.3797    1.1637 O   0  0  0  0  0  0  0  0  0  0  0  0
    0.5420   -0.8676   -0.1271 N   0  0  0  0  0  0  0  0  0  0  0  0
    1.9625   -0.8072   -0.3161 C   0  0  0  0  0  0  0  0  0  0  0  0
    2.7953   -1.7508    0.3250 C   0  0  0  0  0  0  0  0  0  0  0  0
    4.1862   -1.6805    0.1935 C   0  0  0  0  0  0  0  0  0  0  0  0
    4.6805   -0.6513   -0.5719 C   0  0  0  0  0  0  0  0  0  0  0  0
    5.9637   -0.3123   -0.8844 N   0  0  0  0  0  0  0  0  0  0  0  0
    5.9208    0.8122   -1.6752 C   0  0  0  0  0  0  0  0  0  0  0  0
    6.9014    1.3796   -2.1338 O   0  0  0  0  0  0  0  0  0  0  0  0
    4.6009    1.2275   -1.8954 O   0  0  0  0  0  0  0  0  0  0  0  0
    3.8744    0.2838   -1.1869 C   0  0  0  0  0  0  0  0  0  0  0  0
    2.5029    0.2385   -1.0702 C   0  0  0  0  0  0  0  0  0  0  0  0
   -2.3461    0.7973   -0.0912 C   0  0  0  0  0  0  0  0  0  0  0  0
   -1.5524    1.6771   -1.0165 C   0  0  0  0  0  0  0  0  0  0  0  0
   -3.7448    0.7596   -0.2412 C   0  0  0  0  0  0  0  0  0  0  0  0
   -6.4104    0.9028    0.0240 H   0  0  0  0  0  0  0  0  0  0  0  0
   -6.5597   -0.2582    1.3424 H   0  0  0  0  0  0  0  0  0  0  0  0
   -6.2932   -0.8416   -0.3187 H   0  0  0  0  0  0  0  0  0  0  0  0
   -4.5638   -1.3849    2.2750 H   0  0  0  0  0  0  0  0  0  0  0  0
   -2.1337   -1.3330    2.5904 H   0  0  0  0  0  0  0  0  0  0  0  0
    0.2260   -1.8307    0.0012 H   0  0  0  0  0  0  0  0  0  0  0  0
    2.3623   -2.5344    0.9428 H   0  0  0  0  0  0  0  0  0  0  0  0
    4.8341   -2.3977    0.6830 H   0  0  0  0  0  0  0  0  0  0  0  0
    6.8171   -0.7651   -0.6022 H   0  0  0  0  0  0  0  0  0  0  0  0
    1.8759    0.9867   -1.5398 H   0  0  0  0  0  0  0  0  0  0  0  0
   -1.1750    2.5526   -0.4803 H   0  0  0  0  0  0  0  0  0  0  0  0
   -2.1706    2.0427   -1.8442 H   0  0  0  0  0  0  0  0  0  0  0  0
   -0.7232    1.1289   -1.4698 H   0  0  0  0  0  0  0  0  0  0  0  0
   -4.2165    1.3462   -1.0293 H   0  0  0  0  0  0  0  0  0  0  0  0
  1  2  1  0
  2  3  2  0
  3  4  1  0
  4  5  2  0
  5  6  1  0
  6  7  2  0
  6  8  2  0
  6  9  1  0
  9 10  1  0
 10 11  2  0
 11 12  1  0
 12 13  2  0
 13 14  1  0
 14 15  1  0
 15 16  2  0
 15 17  1  0
 17 18  1  0
 18 19  2  0
  5 20  1  0
 20 21  1  0
 20 22  2  0
 22  2  1  0
 19 10  1  0
 18 13  1  0
  1 23  1  0
  1 24  1  0
  1 25  1  0
  3 26  1  0
  4 27  1  0
  9 28  1  0
 11 29  1  0
 12 30  1  0
 14 31  1  0
 19 32  1  0
 21 33  1  0
 21 34  1  0
 21 35  1  0
 22 36  1  0
M  END
$$$$
