
     RDKit          3D

 51 54  0  0  0  0  0  0  0  0999 V2000
   -2.9226    0.9527   -1.6306 O   0  0  0  0  0  0  0  0  0  0  0  0
   -2.7145   -0.0998   -1.0251 C   0  0  0  0  0  0  0  0  0  0  0  0
   -3.8102   -1.1696   -0.8633 C   0  0  0  0  0  0  0  0  0  0  0  0
   -5.0617   -0.8782   -1.4675 O   0  0  0  0  0  0  0  0  0  0  0  0
   -5.9537   -0.1179   -0.7642 C   0  0  0  0  0  0  0  0  0  0  0  0
   -7.2544   -0.1215   -1.2819 C   0  0  0  0  0  0  0  0  0  0  0  0
   -8.2678    0.6122   -0.6635 C   0  0  0  0  0  0  0  0  0  0  0  0
   -7.9728    1.3564    0.4704 C   0  0  0  0  0  0  0  0  0  0  0  0
   -8.9407    2.0630    1.0684 F   0  0  0  0  0  0  0  0  0  0  0  0
   -6.6844    1.3819    0.9907 C   0  0  0  0  0  0  0  0  0  0  0  0
   -5.6699    0.6454    0.3711 C   0  0  0  0  0  0  0  0  0  0  0  0
   -1.4778   -0.3652   -0.4259 N   0  0  0  0  0  0  0  0  0  0  0  0
   -0.3983    0.5896   -0.6978 C   0  0  0  0  0  0  0  0  0  0  0  0
    0.7523    0.5079    0.3221 C   0  0  0  0  0  0  0  0  0  0  0  0
    1.2619   -0.8575    0.5904 N   0  0  0  0  0  0  0  0  0  0  0  0
    2.0130   -1.4145   -0.5546 C   0  0  0  0  0  0  0  0  0  0  0  0
    3.3639   -0.7395   -0.7373 C   0  0  0  0  0  0  0  0  0  0  0  0
    3.8117   -0.3944   -1.9560 C   0  0  0  0  0  0  0  0  0  0  0  0
    5.1152    0.3028   -2.0811 C   0  0  0  0  0  0  0  0  0  0  0  0
    5.5582    0.5880   -3.1881 O   0  0  0  0  0  0  0  0  0  0  0  0
    5.8333    0.6515   -0.8316 C   0  0  0  0  0  0  0  0  0  0  0  0
    7.0413    1.3538   -0.8798 C   0  0  0  0  0  0  0  0  0  0  0  0
    7.6976    1.6721    0.3084 C   0  0  0  0  0  0  0  0  0  0  0  0
    7.1506    1.2837    1.5325 C   0  0  0  0  0  0  0  0  0  0  0  0
    5.9427    0.5800    1.5752 C   0  0  0  0  0  0  0  0  0  0  0  0
    5.2618    0.2747    0.3941 C   0  0  0  0  0  0  0  0  0  0  0  0
    4.0864   -0.4865    0.4162 N   0  0  0  0  0  0  0  0  0  0  0  0
    0.1193   -1.7196    0.9540 C   0  0  0  0  0  0  0  0  0  0  0  0
   -1.0500   -1.7167   -0.0502 C   0  0  0  0  0  0  0  0  0  0  0  0
   -3.4457   -2.0716   -1.3684 H   0  0  0  0  0  0  0  0  0  0  0  0
   -3.9391   -1.4236    0.1956 H   0  0  0  0  0  0  0  0  0  0  0  0
   -7.4774   -0.7010   -2.1746 H   0  0  0  0  0  0  0  0  0  0  0  0
   -9.2769    0.6100   -1.0615 H   0  0  0  0  0  0  0  0  0  0  0  0
   -6.4738    1.9833    1.8693 H   0  0  0  0  0  0  0  0  0  0  0  0
   -4.6701    0.7102    0.7861 H   0  0  0  0  0  0  0  0  0  0  0  0
   -0.0324    0.3877   -1.7114 H   0  0  0  0  0  0  0  0  0  0  0  0
   -0.8011    1.6090   -0.6978 H   0  0  0  0  0  0  0  0  0  0  0  0
    0.3927    0.9144    1.2771 H   0  0  0  0  0  0  0  0  0  0  0  0
    1.5642    1.1766    0.0137 H   0  0  0  0  0  0  0  0  0  0  0  0
    1.4295   -1.3857   -1.4821 H   0  0  0  0  0  0  0  0  0  0  0  0
    2.2271   -2.4732   -0.3539 H   0  0  0  0  0  0  0  0  0  0  0  0
    3.2720   -0.5827   -2.8744 H   0  0  0  0  0  0  0  0  0  0  0  0
    7.4674    1.6475   -1.8361 H   0  0  0  0  0  0  0  0  0  0  0  0
    8.6383    2.2166    0.2797 H   0  0  0  0  0  0  0  0  0  0  0  0
    7.6703    1.5228    2.4574 H   0  0  0  0  0  0  0  0  0  0  0  0
    5.5415    0.2700    2.5363 H   0  0  0  0  0  0  0  0  0  0  0  0
    3.5390   -0.5186    1.2745 H   0  0  0  0  0  0  0  0  0  0  0  0
    0.4582   -2.7490    1.1229 H   0  0  0  0  0  0  0  0  0  0  0  0
   -0.2602   -1.3745    1.9251 H   0  0  0  0  0  0  0  0  0  0  0  0
   -1.8863   -2.2686    0.3873 H   0  0  0  0  0  0  0  0  0  0  0  0
   -0.7675   -2.2346   -0.9742 H   0  0  0  0  0  0  0  0  0  0  0  0
  1  2  2  0
  2  3  1  0
  3  4  1  0
  4  5  1  0
  5  6  2  0
  6  7  1  0
  7  8  2  0
  8  9  1  0
  8 10  1  0
 10 11  2  0
  2 12  1  0
 12 13  1  0
 13 14  1  0
 14 15  1  0
 15 16  1  0
 16 17  1  0
 17 18  2  0
 18 19  1  0
 19 20  2  0
 19 21  1  0
 21 22  2  0
 22 23  1  0
 23 24  2  0
 24 25  1  0
 25 26  2  0
 26 27  1  0
 15 28  1  0
 28 29  1  0
 11  5  1  0
 29 12  1  0
 27 17  1  0
 26 21  1  0
  3 30  1  0
  3 31  1  0
  6 32  1  0
  7 33  1  0
 10 34  1  0
 11 35  1  0
 13 36  1  0
 13 37  1  0
 14 38  1  0
 14 39  1  0
 16 40  1  0
 16 41  1  0
 18 42  1  0
 22 43  1  0
 23 44  1  0
 24 45  1  0
 25 46  1  0
 27 47  1  0
 28 48  1  0
 28 49  1  0
 29 50  1  0
 29 51  1  0
M  END
$$$$
