
     RDKit          3D

 50 53  0  0  0  0  0  0  0  0999 V2000
    2.7959   -0.4670    0.9382 O   0  0  0  0  0  0  0  0  0  0  0  0
    2.5476   -0.5447   -0.2601 C   0  0  0  0  0  0  0  0  0  0  0  0
    1.5953    0.3958   -0.9731 C   0  0  0  0  0  0  0  0  0  0  0  0
    0.9521    1.4173   -0.0328 C   0  0  0  0  0  0  0  0  0  0  0  0
   -0.0253    0.8021    0.9663 C   0  0  0  0  0  0  0  0  0  0  0  0
   -0.4003    1.7424    1.9846 N   0  0  0  0  0  0  0  0  0  0  0  0
   -1.7666    1.8523    2.1189 C   0  0  0  0  0  0  0  0  0  0  0  0
   -2.2734    2.5329    2.9976 O   0  0  0  0  0  0  0  0  0  0  0  0
   -2.3689    1.0763    1.1577 N   0  0  0  0  0  0  0  0  0  0  0  0
   -3.7711    1.0361    0.9125 C   0  0  0  0  0  0  0  0  0  0  0  0
   -4.4944    2.2364    1.0518 C   0  0  0  0  0  0  0  0  0  0  0  0
   -5.8502    2.3033    0.7493 C   0  0  0  0  0  0  0  0  0  0  0  0
   -6.5154    1.1656    0.3128 C   0  0  0  0  0  0  0  0  0  0  0  0
   -5.8475   -0.0609    0.2061 C   0  0  0  0  0  0  0  0  0  0  0  0
   -6.5701   -1.1981   -0.1938 C   0  0  0  0  0  0  0  0  0  0  0  0
   -5.9651   -2.4498   -0.2593 C   0  0  0  0  0  0  0  0  0  0  0  0
   -4.6312   -2.5816    0.0912 C   0  0  0  0  0  0  0  0  0  0  0  0
   -3.8992   -1.4567    0.4838 C   0  0  0  0  0  0  0  0  0  0  0  0
   -4.4641   -0.1552    0.5218 C   0  0  0  0  0  0  0  0  0  0  0  0
   -1.4013    0.5039    0.3589 C   0  0  0  0  0  0  0  0  0  0  0  0
   -1.5457   -0.1265   -0.6822 O   0  0  0  0  0  0  0  0  0  0  0  0
    3.0901   -1.4935   -1.0983 N   0  0  0  0  0  0  0  0  0  0  0  0
    4.1299   -2.4082   -0.6584 C   0  0  0  0  0  0  0  0  0  0  0  0
    5.5085   -2.0585   -1.2249 C   0  0  0  0  0  0  0  0  0  0  0  0
    5.9966   -0.7192   -0.8028 C   0  0  0  0  0  0  0  0  0  0  0  0
    6.2361   -0.1334    0.4229 C   0  0  0  0  0  0  0  0  0  0  0  0
    6.6964    1.1782    0.1551 C   0  0  0  0  0  0  0  0  0  0  0  0
    6.7128    1.3072   -1.2137 C   0  0  0  0  0  0  0  0  0  0  0  0
    6.2898    0.1603   -1.8044 O   0  0  0  0  0  0  0  0  0  0  0  0
    0.8370   -0.1950   -1.4954 H   0  0  0  0  0  0  0  0  0  0  0  0
    2.1763    0.9359   -1.7307 H   0  0  0  0  0  0  0  0  0  0  0  0
    0.4335    2.1702   -0.6409 H   0  0  0  0  0  0  0  0  0  0  0  0
    1.7427    1.9515    0.5107 H   0  0  0  0  0  0  0  0  0  0  0  0
    0.3497   -0.0971    1.4621 H   0  0  0  0  0  0  0  0  0  0  0  0
    0.2142    2.1081    2.7013 H   0  0  0  0  0  0  0  0  0  0  0  0
   -4.0009    3.1560    1.3605 H   0  0  0  0  0  0  0  0  0  0  0  0
   -6.3835    3.2452    0.8458 H   0  0  0  0  0  0  0  0  0  0  0  0
   -7.5749    1.2404    0.0758 H   0  0  0  0  0  0  0  0  0  0  0  0
   -7.6252   -1.1186   -0.4487 H   0  0  0  0  0  0  0  0  0  0  0  0
   -6.5394   -3.3190   -0.5673 H   0  0  0  0  0  0  0  0  0  0  0  0
   -4.1522   -3.5566    0.0641 H   0  0  0  0  0  0  0  0  0  0  0  0
   -2.8668   -1.6237    0.7767 H   0  0  0  0  0  0  0  0  0  0  0  0
    2.8885   -1.4404   -2.0893 H   0  0  0  0  0  0  0  0  0  0  0  0
    3.8374   -3.4027   -1.0125 H   0  0  0  0  0  0  0  0  0  0  0  0
    4.1602   -2.4420    0.4361 H   0  0  0  0  0  0  0  0  0  0  0  0
    5.4705   -2.1072   -2.3204 H   0  0  0  0  0  0  0  0  0  0  0  0
    6.2313   -2.8161   -0.8996 H   0  0  0  0  0  0  0  0  0  0  0  0
    6.0801   -0.5909    1.3905 H   0  0  0  0  0  0  0  0  0  0  0  0
    6.9774    1.9370    0.8714 H   0  0  0  0  0  0  0  0  0  0  0  0
    6.9830    2.1083   -1.8878 H   0  0  0  0  0  0  0  0  0  0  0  0
  1  2  2  0
  2  3  1  0
  3  4  1  0
  4  5  1  0
  5  6  1  0
  6  7  1  0
  7  8  2  0
  7  9  1  0
  9 10  1  0
 10 11  2  0
 11 12  1  0
 12 13  2  0
 13 14  1  0
 14 15  2  0
 15 16  1  0
 16 17  2  0
 17 18  1  0
 18 19  2  0
  9 20  1  0
 20 21  2  0
  2 22  1  0
 22 23  1  0
 23 24  1  0
 24 25  1  0
 25 26  2  0
 26 27  1  0
 27 28  2  0
 28 29  1  0
 20  5  1  0
 29 25  1  0
 19 10  1  0
 19 14  1  0
  3 30  1  0
  3 31  1  0
  4 32  1  0
  4 33  1  0
  5 34  1  0
  6 35  1  0
 11 36  1  0
 12 37  1  0
 13 38  1  0
 15 39  1  0
 16 40  1  0
 17 41  1  0
 18 42  1  0
 22 43  1  0
 23 44  1  0
 23 45  1  0
 24 46  1  0
 24 47  1  0
 26 48  1  0
 27 49  1  0
 28 50  1  0
M  END
$$$$
