
     RDKit          3D

 47 49  0  0  0  0  0  0  0  0999 V2000
    3.6644   -0.5385   -3.0162 O   0  0  0  0  0  0  0  0  0  0  0  0
    2.7677    0.2936   -2.9245 C   0  0  0  0  0  0  0  0  0  0  0  0
    1.5658    0.2996   -3.8533 C   0  0  0  0  0  0  0  0  0  0  0  0
    0.1682   -0.5657   -3.0870 S   0  0  0  0  0  0  0  0  0  0  0  0
   -0.4854    0.6545   -2.0488 C   0  0  0  0  0  0  0  0  0  0  0  0
    0.0313    1.8522   -1.8828 N   0  0  0  0  0  0  0  0  0  0  0  0
   -0.8159    2.4955   -1.0223 C   0  0  0  0  0  0  0  0  0  0  0  0
   -1.8550    1.6747   -0.6281 C   0  0  0  0  0  0  0  0  0  0  0  0
   -2.9691    1.9397    0.3081 C   0  0  0  0  0  0  0  0  0  0  0  0
   -4.1754    1.7630   -0.4167 O   0  0  0  0  0  0  0  0  0  0  0  0
   -1.6206    0.4761   -1.2809 N   0  0  0  0  0  0  0  0  0  0  0  0
   -2.4501   -0.7204   -1.2121 C   0  0  0  0  0  0  0  0  0  0  0  0
   -2.3971   -1.3909    0.1434 C   0  0  0  0  0  0  0  0  0  0  0  0
   -1.1726   -1.7532    0.7377 C   0  0  0  0  0  0  0  0  0  0  0  0
   -1.1525   -2.3896    1.9819 C   0  0  0  0  0  0  0  0  0  0  0  0
   -2.3517   -2.6710    2.6274 C   0  0  0  0  0  0  0  0  0  0  0  0
   -2.3410   -3.2751    3.8273 F   0  0  0  0  0  0  0  0  0  0  0  0
   -3.5726   -2.3365    2.0498 C   0  0  0  0  0  0  0  0  0  0  0  0
   -3.5979   -1.7031    0.8070 C   0  0  0  0  0  0  0  0  0  0  0  0
    2.7607    1.3061   -1.9899 N   0  0  0  0  0  0  0  0  0  0  0  0
    3.7152    1.3542   -0.9127 C   0  0  0  0  0  0  0  0  0  0  0  0
    3.2161    0.5951    0.2909 C   0  0  0  0  0  0  0  0  0  0  0  0
    3.4860   -0.7746    0.4281 C   0  0  0  0  0  0  0  0  0  0  0  0
    3.0212   -1.4830    1.5350 C   0  0  0  0  0  0  0  0  0  0  0  0
    2.2727   -0.8254    2.5115 C   0  0  0  0  0  0  0  0  0  0  0  0
    1.9790    0.5285    2.3773 C   0  0  0  0  0  0  0  0  0  0  0  0
    2.4428    1.2355    1.2714 C   0  0  0  0  0  0  0  0  0  0  0  0
    1.8434   -0.2190   -4.7729 H   0  0  0  0  0  0  0  0  0  0  0  0
    1.3015    1.3230   -4.1350 H   0  0  0  0  0  0  0  0  0  0  0  0
   -0.6366    3.5203   -0.7224 H   0  0  0  0  0  0  0  0  0  0  0  0
   -2.9318    2.9681    0.6820 H   0  0  0  0  0  0  0  0  0  0  0  0
   -2.9516    1.2652    1.1636 H   0  0  0  0  0  0  0  0  0  0  0  0
   -4.8891    1.9795    0.2049 H   0  0  0  0  0  0  0  0  0  0  0  0
   -3.4696   -0.4179   -1.4825 H   0  0  0  0  0  0  0  0  0  0  0  0
   -2.1347   -1.4462   -1.9682 H   0  0  0  0  0  0  0  0  0  0  0  0
   -0.2258   -1.5405    0.2389 H   0  0  0  0  0  0  0  0  0  0  0  0
   -0.2120   -2.6692    2.4489 H   0  0  0  0  0  0  0  0  0  0  0  0
   -4.4957   -2.5759    2.5736 H   0  0  0  0  0  0  0  0  0  0  0  0
   -4.5583   -1.4526    0.3617 H   0  0  0  0  0  0  0  0  0  0  0  0
    1.8542    1.7421   -1.8166 H   0  0  0  0  0  0  0  0  0  0  0  0
    4.6840    0.9582   -1.2406 H   0  0  0  0  0  0  0  0  0  0  0  0
    3.8628    2.4081   -0.6532 H   0  0  0  0  0  0  0  0  0  0  0  0
    4.0608   -1.2959   -0.3342 H   0  0  0  0  0  0  0  0  0  0  0  0
    3.2507   -2.5486    1.6345 H   0  0  0  0  0  0  0  0  0  0  0  0
    1.9186   -1.3708    3.3801 H   0  0  0  0  0  0  0  0  0  0  0  0
    1.3959    1.0347    3.1409 H   0  0  0  0  0  0  0  0  0  0  0  0
    2.1994    2.2959    1.1763 H   0  0  0  0  0  0  0  0  0  0  0  0
  1  2  2  0
  2  3  1  0
  3  4  1  0
  4  5  1  0
  5  6  2  0
  6  7  1  0
  7  8  2  0
  8  9  1  0
  9 10  1  0
  8 11  1  0
 11 12  1  0
 12 13  1  0
 13 14  2  0
 14 15  1  0
 15 16  2  0
 16 17  1  0
 16 18  1  0
 18 19  2  0
  2 20  1  0
 20 21  1  0
 21 22  1  0
 22 23  2  0
 23 24  1  0
 24 25  2  0
 25 26  1  0
 26 27  2  0
 11  5  1  0
 19 13  1  0
 27 22  1  0
  3 28  1  0
  3 29  1  0
  7 30  1  0
  9 31  1  0
  9 32  1  0
 10 33  1  0
 12 34  1  0
 12 35  1  0
 14 36  1  0
 15 37  1  0
 18 38  1  0
 19 39  1  0
 20 40  1  0
 21 41  1  0
 21 42  1  0
 23 43  1  0
 24 44  1  0
 25 45  1  0
 26 46  1  0
 27 47  1  0
M  END
$$$$
