
     RDKit          3D

 49 51  0  0  0  0  0  0  0  0999 V2000
    7.4784    1.4243   -0.9797 C   0  0  0  0  0  0  0  0  0  0  0  0
    7.1806    0.1113   -0.2768 C   0  0  0  0  0  0  0  0  0  0  0  0
    6.0895    0.2581    0.6300 O   0  0  0  0  0  0  0  0  0  0  0  0
    4.8191    0.0445    0.1786 C   0  0  0  0  0  0  0  0  0  0  0  0
    4.4342   -0.1899   -1.1379 C   0  0  0  0  0  0  0  0  0  0  0  0
    3.0824   -0.3872   -1.4525 C   0  0  0  0  0  0  0  0  0  0  0  0
    2.0958   -0.3527   -0.4584 C   0  0  0  0  0  0  0  0  0  0  0  0
    0.7606   -0.5612   -0.8699 N   0  0  0  0  0  0  0  0  0  0  0  0
   -0.3709   -0.6041   -0.0688 C   0  0  0  0  0  0  0  0  0  0  0  0
   -0.3652   -0.5546    1.1605 O   0  0  0  0  0  0  0  0  0  0  0  0
   -1.6962   -0.8642   -0.8426 C   0  0  0  0  0  0  0  0  0  0  0  0
   -1.8565   -0.0599   -2.1514 C   0  0  0  0  0  0  0  0  0  0  0  0
   -3.2091   -0.2705   -2.8209 C   0  0  0  0  0  0  0  0  0  0  0  0
   -2.8218   -0.7096    0.1112 N   0  0  0  0  0  0  0  0  0  0  0  0
   -3.4638   -1.8065    0.7033 C   0  0  0  0  0  0  0  0  0  0  0  0
   -3.0291   -3.2006    0.3104 C   0  0  0  0  0  0  0  0  0  0  0  0
   -4.4338   -1.7264    1.5672 N   0  0  0  0  0  0  0  0  0  0  0  0
   -4.7722   -0.4661    1.9089 C   0  0  0  0  0  0  0  0  0  0  0  0
   -5.7641   -0.1300    2.7836 O   0  0  0  0  0  0  0  0  0  0  0  0
   -5.8292    1.2544    2.9093 N   0  0  0  0  0  0  0  0  0  0  0  0
   -4.8663    1.7350    2.1100 C   0  0  0  0  0  0  0  0  0  0  0  0
   -4.6304    3.1912    1.9968 C   0  0  0  0  0  0  0  0  0  0  0  0
   -4.1937    0.6870    1.4607 C   0  0  0  0  0  0  0  0  0  0  0  0
   -3.1241    0.6057    0.5180 C   0  0  0  0  0  0  0  0  0  0  0  0
   -2.5525    1.6110    0.1088 O   0  0  0  0  0  0  0  0  0  0  0  0
    2.4855   -0.1088    0.8565 C   0  0  0  0  0  0  0  0  0  0  0  0
    3.8364    0.0883    1.1684 C   0  0  0  0  0  0  0  0  0  0  0  0
    7.6602    2.2179   -0.2473 H   0  0  0  0  0  0  0  0  0  0  0  0
    6.6348    1.7495   -1.5956 H   0  0  0  0  0  0  0  0  0  0  0  0
    8.3601    1.3284   -1.6199 H   0  0  0  0  0  0  0  0  0  0  0  0
    8.0521   -0.1605    0.3297 H   0  0  0  0  0  0  0  0  0  0  0  0
    7.0354   -0.7163   -0.9797 H   0  0  0  0  0  0  0  0  0  0  0  0
    5.1532   -0.2172   -1.9490 H   0  0  0  0  0  0  0  0  0  0  0  0
    2.8201   -0.5656   -2.4922 H   0  0  0  0  0  0  0  0  0  0  0  0
    0.6431   -0.7025   -1.8632 H   0  0  0  0  0  0  0  0  0  0  0  0
   -1.6289   -1.9117   -1.1503 H   0  0  0  0  0  0  0  0  0  0  0  0
   -1.6810    1.0092   -1.9972 H   0  0  0  0  0  0  0  0  0  0  0  0
   -1.0896   -0.3765   -2.8681 H   0  0  0  0  0  0  0  0  0  0  0  0
   -4.0271    0.1326   -2.2170 H   0  0  0  0  0  0  0  0  0  0  0  0
   -3.3982   -1.3347   -2.9945 H   0  0  0  0  0  0  0  0  0  0  0  0
   -3.2310    0.2389   -3.7897 H   0  0  0  0  0  0  0  0  0  0  0  0
   -3.5857   -3.9478    0.8848 H   0  0  0  0  0  0  0  0  0  0  0  0
   -3.2306   -3.3681   -0.7513 H   0  0  0  0  0  0  0  0  0  0  0  0
   -1.9645   -3.3377    0.5184 H   0  0  0  0  0  0  0  0  0  0  0  0
   -5.3180    3.7619    2.6294 H   0  0  0  0  0  0  0  0  0  0  0  0
   -4.7708    3.5218    0.9627 H   0  0  0  0  0  0  0  0  0  0  0  0
   -3.6085    3.4376    2.3024 H   0  0  0  0  0  0  0  0  0  0  0  0
    1.7707   -0.0568    1.6713 H   0  0  0  0  0  0  0  0  0  0  0  0
    4.1208    0.2792    2.2010 H   0  0  0  0  0  0  0  0  0  0  0  0
  1  2  1  0
  2  3  1  0
  3  4  1  0
  4  5  2  0
  5  6  1  0
  6  7  2  0
  7  8  1  0
  8  9  1  0
  9 10  2  0
  9 11  1  0
 11 12  1  0
 12 13  1  0
 11 14  1  0
 14 15  1  0
 15 16  1  0
 15 17  2  0
 17 18  1  0
 18 19  1  0
 19 20  1  0
 20 21  2  0
 21 22  1  0
 21 23  1  0
 23 24  1  0
 24 25  2  0
  7 26  1  0
 26 27  2  0
 27  4  1  0
 24 14  1  0
 23 18  2  0
  1 28  1  0
  1 29  1  0
  1 30  1  0
  2 31  1  0
  2 32  1  0
  5 33  1  0
  6 34  1  0
  8 35  1  0
 11 36  1  0
 12 37  1  0
 12 38  1  0
 13 39  1  0
 13 40  1  0
 13 41  1  0
 16 42  1  0
 16 43  1  0
 16 44  1  0
 22 45  1  0
 22 46  1  0
 22 47  1  0
 26 48  1  0
 27 49  1  0
M  END
$$$$
