
     RDKit          3D

 50 52  0  0  0  0  0  0  0  0999 V2000
    8.9732   -1.9110    0.7576 C   0  0  0  0  0  0  0  0  0  0  0  0
    7.8953   -0.9932    0.2683 C   0  0  0  0  0  0  0  0  0  0  0  0
    8.3042    0.2056   -0.4289 C   0  0  0  0  0  0  0  0  0  0  0  0
    7.3862    1.0642   -0.8895 C   0  0  0  0  0  0  0  0  0  0  0  0
    6.0254    0.8436   -0.7201 N   0  0  0  0  0  0  0  0  0  0  0  0
    5.1202    1.7663   -1.2177 C   0  0  0  0  0  0  0  0  0  0  0  0
    5.4083    2.8014   -1.8177 O   0  0  0  0  0  0  0  0  0  0  0  0
    3.7010    1.4504   -0.9921 C   0  0  0  0  0  0  0  0  0  0  0  0
    3.3710    0.3276   -0.3407 C   0  0  0  0  0  0  0  0  0  0  0  0
    1.9279   -0.0691   -0.0681 C   0  0  0  0  0  0  0  0  0  0  0  0
    1.0136    0.8981   -0.5909 O   0  0  0  0  0  0  0  0  0  0  0  0
   -0.3190    0.6554   -0.4097 C   0  0  0  0  0  0  0  0  0  0  0  0
   -1.1667    1.6287   -0.9381 C   0  0  0  0  0  0  0  0  0  0  0  0
   -2.5548    1.5043   -0.8227 C   0  0  0  0  0  0  0  0  0  0  0  0
   -3.1198    0.4005   -0.1746 C   0  0  0  0  0  0  0  0  0  0  0  0
   -4.5276    0.3500   -0.1008 N   0  0  0  0  0  0  0  0  0  0  0  0
   -5.3132   -0.6310    0.4842 C   0  0  0  0  0  0  0  0  0  0  0  0
   -4.8862   -1.6369    1.0446 O   0  0  0  0  0  0  0  0  0  0  0  0
   -6.8339   -0.3590    0.3776 C   0  0  0  0  0  0  0  0  0  0  0  0
   -7.6081   -1.5045    1.0561 C   0  0  0  0  0  0  0  0  0  0  0  0
   -7.2573   -0.2930   -1.0980 C   0  0  0  0  0  0  0  0  0  0  0  0
   -7.1873    0.9557    1.0901 C   0  0  0  0  0  0  0  0  0  0  0  0
   -2.2688   -0.5709    0.3525 C   0  0  0  0  0  0  0  0  0  0  0  0
   -0.8762   -0.4457    0.2365 C   0  0  0  0  0  0  0  0  0  0  0  0
    4.3076   -0.5599    0.1358 N   0  0  0  0  0  0  0  0  0  0  0  0
    5.5616   -0.2858   -0.0607 C   0  0  0  0  0  0  0  0  0  0  0  0
    6.5885   -1.2382    0.4500 C   0  0  0  0  0  0  0  0  0  0  0  0
    9.6297   -1.3919    1.4642 H   0  0  0  0  0  0  0  0  0  0  0  0
    8.5605   -2.7865    1.2705 H   0  0  0  0  0  0  0  0  0  0  0  0
    9.5803   -2.2727   -0.0792 H   0  0  0  0  0  0  0  0  0  0  0  0
    9.3625    0.4007   -0.5741 H   0  0  0  0  0  0  0  0  0  0  0  0
    7.6764    1.9702   -1.4159 H   0  0  0  0  0  0  0  0  0  0  0  0
    2.9787    2.1596   -1.3737 H   0  0  0  0  0  0  0  0  0  0  0  0
    1.7954   -0.1512    1.0181 H   0  0  0  0  0  0  0  0  0  0  0  0
    1.7455   -1.0417   -0.5423 H   0  0  0  0  0  0  0  0  0  0  0  0
   -0.7447    2.4932   -1.4450 H   0  0  0  0  0  0  0  0  0  0  0  0
   -3.1798    2.2847   -1.2480 H   0  0  0  0  0  0  0  0  0  0  0  0
   -5.0098    1.1281   -0.5294 H   0  0  0  0  0  0  0  0  0  0  0  0
   -7.3892   -2.4679    0.5811 H   0  0  0  0  0  0  0  0  0  0  0  0
   -8.6905   -1.3432    0.9987 H   0  0  0  0  0  0  0  0  0  0  0  0
   -7.3401   -1.5923    2.1155 H   0  0  0  0  0  0  0  0  0  0  0  0
   -6.8129    0.5634   -1.6161 H   0  0  0  0  0  0  0  0  0  0  0  0
   -8.3452   -0.2021   -1.1937 H   0  0  0  0  0  0  0  0  0  0  0  0
   -6.9453   -1.1958   -1.6357 H   0  0  0  0  0  0  0  0  0  0  0  0
   -6.7422    1.8252    0.5948 H   0  0  0  0  0  0  0  0  0  0  0  0
   -6.8250    0.9503    2.1246 H   0  0  0  0  0  0  0  0  0  0  0  0
   -8.2714    1.1143    1.1129 H   0  0  0  0  0  0  0  0  0  0  0  0
   -2.6524   -1.4476    0.8651 H   0  0  0  0  0  0  0  0  0  0  0  0
   -0.2650   -1.2328    0.6662 H   0  0  0  0  0  0  0  0  0  0  0  0
    6.2192   -2.1176    0.9637 H   0  0  0  0  0  0  0  0  0  0  0  0
  1  2  1  0
  2  3  1  0
  3  4  2  0
  4  5  1  0
  5  6  1  0
  6  7  2  0
  6  8  1  0
  8  9  2  0
  9 10  1  0
 10 11  1  0
 11 12  1  0
 12 13  2  0
 13 14  1  0
 14 15  2  0
 15 16  1  0
 16 17  1  0
 17 18  2  0
 17 19  1  0
 19 20  1  0
 19 21  1  0
 19 22  1  0
 15 23  1  0
 23 24  2  0
  9 25  1  0
 25 26  2  0
 26 27  1  0
 27  2  2  0
 26  5  1  0
 24 12  1  0
  1 28  1  0
  1 29  1  0
  1 30  1  0
  3 31  1  0
  4 32  1  0
  8 33  1  0
 10 34  1  0
 10 35  1  0
 13 36  1  0
 14 37  1  0
 16 38  1  0
 20 39  1  0
 20 40  1  0
 20 41  1  0
 21 42  1  0
 21 43  1  0
 21 44  1  0
 22 45  1  0
 22 46  1  0
 22 47  1  0
 23 48  1  0
 24 49  1  0
 27 50  1  0
M  END
$$$$
