
     RDKit          3D

 68 71  0  0  0  0  0  0  0  0999 V2000
   -1.2143   -4.5887    0.1786 C   0  0  0  0  0  0  0  0  0  0  0  0
   -1.3943   -3.0883    0.0161 C   0  0  0  0  0  0  0  0  0  0  0  0
   -2.8211   -2.7376    0.1830 N   0  0  0  0  0  0  0  0  0  0  0  0
   -3.6596   -2.8061   -1.0306 C   0  0  0  0  0  0  0  0  0  0  0  0
   -3.4589   -1.6340   -1.9725 C   0  0  0  0  0  0  0  0  0  0  0  0
   -3.3090   -1.8126    1.5101 S   0  0  0  0  0  6  0  0  0  0  0  0
   -2.4915   -2.1745    2.6499 O   0  0  0  0  0  0  0  0  0  0  0  0
   -4.7548   -1.8651    1.5868 O   0  0  0  0  0  0  0  0  0  0  0  0
   -2.8647   -0.1454    1.0755 C   0  0  0  0  0  0  0  0  0  0  0  0
   -3.8436    0.7838    0.7518 C   0  0  0  0  0  0  0  0  0  0  0  0
   -3.4674    2.0847    0.4027 C   0  0  0  0  0  0  0  0  0  0  0  0
   -2.1161    2.4893    0.3588 C   0  0  0  0  0  0  0  0  0  0  0  0
   -1.1353    1.5351    0.7463 C   0  0  0  0  0  0  0  0  0  0  0  0
   -1.5266    0.2391    1.1204 C   0  0  0  0  0  0  0  0  0  0  0  0
    0.2430    1.9025    0.7526 N   0  0  0  0  0  0  0  0  0  0  0  0
    1.2691    1.0545    1.3477 C   0  0  0  0  0  0  0  0  0  0  0  0
    1.8070    0.0223    0.3444 C   0  0  0  0  0  0  0  0  0  0  0  0
    1.0992   -0.5386   -0.4900 O   0  0  0  0  0  0  0  0  0  0  0  0
    3.1474   -0.2803    0.5149 N   0  0  0  0  0  0  0  0  0  0  0  0
    3.8333   -1.1599   -0.4210 C   0  0  0  0  0  0  0  0  0  0  0  0
    4.9483   -1.9851    0.2432 C   0  0  0  0  0  0  0  0  0  0  0  0
    4.3911   -3.1227    1.1151 C   0  0  0  0  0  0  0  0  0  0  0  0
    3.7462   -4.1504    0.3547 O   0  0  0  0  0  0  0  0  0  0  0  0
    4.4005   -4.4255   -0.8905 C   0  0  0  0  0  0  0  0  0  0  0  0
    5.8226   -3.8751   -0.9560 C   0  0  0  0  0  0  0  0  0  0  0  0
    5.8480   -2.4537   -0.7812 O   0  0  0  0  0  0  0  0  0  0  0  0
    0.6692    3.0623    0.1185 C   0  0  0  0  0  0  0  0  0  0  0  0
    1.8615    3.3845    0.0903 O   0  0  0  0  0  0  0  0  0  0  0  0
   -0.4076    3.8455   -0.6526 C   0  0  0  0  0  0  0  0  0  0  0  0
    0.0799    5.2912   -0.8354 C   0  0  0  0  0  0  0  0  0  0  0  0
   -0.9617    6.1619   -1.5194 C   0  0  0  0  0  0  0  0  0  0  0  0
   -2.2579    6.1186   -0.7300 C   0  0  0  0  0  0  0  0  0  0  0  0
   -2.7623    4.6875   -0.5724 C   0  0  0  0  0  0  0  0  0  0  0  0
   -1.7353    3.8134    0.0172 N   0  0  0  0  0  0  0  0  0  0  0  0
   -0.1574   -4.8564    0.0792 H   0  0  0  0  0  0  0  0  0  0  0  0
   -1.5598   -4.9199    1.1637 H   0  0  0  0  0  0  0  0  0  0  0  0
   -1.7769   -5.1446   -0.5781 H   0  0  0  0  0  0  0  0  0  0  0  0
   -0.7695   -2.5890    0.7599 H   0  0  0  0  0  0  0  0  0  0  0  0
   -1.0269   -2.7693   -0.9641 H   0  0  0  0  0  0  0  0  0  0  0  0
   -4.7162   -2.8875   -0.7542 H   0  0  0  0  0  0  0  0  0  0  0  0
   -3.4278   -3.7354   -1.5641 H   0  0  0  0  0  0  0  0  0  0  0  0
   -2.4035   -1.4604   -2.2002 H   0  0  0  0  0  0  0  0  0  0  0  0
   -3.8725   -0.7129   -1.5590 H   0  0  0  0  0  0  0  0  0  0  0  0
   -3.9796   -1.8233   -2.9172 H   0  0  0  0  0  0  0  0  0  0  0  0
   -4.8970    0.5123    0.7584 H   0  0  0  0  0  0  0  0  0  0  0  0
   -4.2742    2.7676    0.1567 H   0  0  0  0  0  0  0  0  0  0  0  0
   -0.7976   -0.5025    1.4236 H   0  0  0  0  0  0  0  0  0  0  0  0
    2.0972    1.6808    1.6994 H   0  0  0  0  0  0  0  0  0  0  0  0
    0.8886    0.5385    2.2351 H   0  0  0  0  0  0  0  0  0  0  0  0
    3.7138    0.4294    0.9658 H   0  0  0  0  0  0  0  0  0  0  0  0
    3.1145   -1.8107   -0.9294 H   0  0  0  0  0  0  0  0  0  0  0  0
    4.2601   -0.5144   -1.1982 H   0  0  0  0  0  0  0  0  0  0  0  0
    5.5383   -1.3173    0.8823 H   0  0  0  0  0  0  0  0  0  0  0  0
    5.2043   -3.5962    1.6782 H   0  0  0  0  0  0  0  0  0  0  0  0
    3.6719   -2.7450    1.8489 H   0  0  0  0  0  0  0  0  0  0  0  0
    4.3992   -5.5098   -1.0367 H   0  0  0  0  0  0  0  0  0  0  0  0
    3.7877   -3.9816   -1.6819 H   0  0  0  0  0  0  0  0  0  0  0  0
    6.2750   -4.0997   -1.9266 H   0  0  0  0  0  0  0  0  0  0  0  0
    6.4541   -4.3244   -0.1815 H   0  0  0  0  0  0  0  0  0  0  0  0
   -0.4960    3.3750   -1.6426 H   0  0  0  0  0  0  0  0  0  0  0  0
    0.3282    5.7268    0.1418 H   0  0  0  0  0  0  0  0  0  0  0  0
    1.0035    5.3068   -1.4269 H   0  0  0  0  0  0  0  0  0  0  0  0
   -1.1320    5.8084   -2.5432 H   0  0  0  0  0  0  0  0  0  0  0  0
   -0.5995    7.1935   -1.5877 H   0  0  0  0  0  0  0  0  0  0  0  0
   -2.0966    6.5620    0.2607 H   0  0  0  0  0  0  0  0  0  0  0  0
   -3.0196    6.7248   -1.2328 H   0  0  0  0  0  0  0  0  0  0  0  0
   -3.6419    4.7468    0.0783 H   0  0  0  0  0  0  0  0  0  0  0  0
   -3.0764    4.2950   -1.5479 H   0  0  0  0  0  0  0  0  0  0  0  0
  1  2  1  0
  2  3  1  0
  3  4  1  0
  4  5  1  0
  3  6  1  0
  6  7  2  0
  6  8  2  0
  6  9  1  0
  9 10  2  0
 10 11  1  0
 11 12  2  0
 12 13  1  0
 13 14  2  0
 13 15  1  0
 15 16  1  0
 16 17  1  0
 17 18  2  0
 17 19  1  0
 19 20  1  0
 20 21  1  0
 21 22  1  0
 22 23  1  0
 23 24  1  0
 24 25  1  0
 25 26  1  0
 15 27  1  0
 27 28  2  0
 27 29  1  0
 29 30  1  0
 30 31  1  0
 31 32  1  0
 32 33  1  0
 33 34  1  0
 14  9  1  0
 26 21  1  0
 34 29  1  0
 34 12  1  0
  1 35  1  0
  1 36  1  0
  1 37  1  0
  2 38  1  0
  2 39  1  0
  4 40  1  0
  4 41  1  0
  5 42  1  0
  5 43  1  0
  5 44  1  0
 10 45  1  0
 11 46  1  0
 14 47  1  0
 16 48  1  0
 16 49  1  0
 19 50  1  0
 20 51  1  0
 20 52  1  0
 21 53  1  0
 22 54  1  0
 22 55  1  0
 24 56  1  0
 24 57  1  0
 25 58  1  0
 25 59  1  0
 29 60  1  0
 30 61  1  0
 30 62  1  0
 31 63  1  0
 31 64  1  0
 32 65  1  0
 32 66  1  0
 33 67  1  0
 33 68  1  0
M  END
$$$$
