
     RDKit          3D

 43 45  0  0  0  0  0  0  0  0999 V2000
   -0.8335    1.9784   -2.3455 C   0  0  0  0  0  0  0  0  0  0  0  0
   -0.7499    0.8642   -1.3661 C   0  0  0  0  0  0  0  0  0  0  0  0
   -1.8180    0.5640   -0.6188 N   0  0  0  0  0  0  0  0  0  0  0  0
   -1.4420   -0.5070    0.1342 N   0  0  0  0  0  0  0  0  0  0  0  0
   -2.3609   -1.0354    1.0701 C   0  0  0  0  0  0  0  0  0  0  0  0
   -1.9626   -1.8630    1.8890 O   0  0  0  0  0  0  0  0  0  0  0  0
   -3.7671   -0.5951    1.1533 C   0  0  0  0  0  0  0  0  0  0  0  0
   -4.1625    0.0841    2.3142 C   0  0  0  0  0  0  0  0  0  0  0  0
   -5.4773    0.5306    2.4450 C   0  0  0  0  0  0  0  0  0  0  0  0
   -6.3982    0.2909    1.4257 C   0  0  0  0  0  0  0  0  0  0  0  0
   -6.0109   -0.4062    0.2785 C   0  0  0  0  0  0  0  0  0  0  0  0
   -4.6949   -0.8583    0.1401 C   0  0  0  0  0  0  0  0  0  0  0  0
   -4.2708   -1.8753   -1.4056 Br  0  0  0  0  0  0  0  0  0  0  0  0
   -0.1326   -0.8838   -0.1286 C   0  0  0  0  0  0  0  0  0  0  0  0
    0.5181   -2.0582    0.5085 C   0  0  0  0  0  0  0  0  0  0  0  0
    0.3370    0.0196   -1.0676 C   0  0  0  0  0  0  0  0  0  0  0  0
    1.9024    0.0876   -1.7764 S   0  0  0  0  0  6  0  0  0  0  0  0
    2.0916    1.4668   -2.1689 O   0  0  0  0  0  0  0  0  0  0  0  0
    1.8950   -0.9912   -2.7381 O   0  0  0  0  0  0  0  0  0  0  0  0
    3.0589   -0.2632   -0.5804 N   0  0  0  0  0  0  0  0  0  0  0  0
    3.1649    0.7400    0.5279 C   0  0  0  0  0  0  0  0  0  0  0  0
    4.4307    1.5889    0.3810 C   0  0  0  0  0  0  0  0  0  0  0  0
    5.6353    0.8114    0.4400 O   0  0  0  0  0  0  0  0  0  0  0  0
    5.4784   -0.5217   -0.0676 C   0  0  0  0  0  0  0  0  0  0  0  0
    4.3969   -0.6307   -1.1459 C   0  0  0  0  0  0  0  0  0  0  0  0
   -0.2779    2.8487   -1.9829 H   0  0  0  0  0  0  0  0  0  0  0  0
   -1.8716    2.2875   -2.5088 H   0  0  0  0  0  0  0  0  0  0  0  0
   -0.4249    1.6756   -3.3147 H   0  0  0  0  0  0  0  0  0  0  0  0
   -3.4486    0.2676    3.1142 H   0  0  0  0  0  0  0  0  0  0  0  0
   -5.7848    1.0635    3.3419 H   0  0  0  0  0  0  0  0  0  0  0  0
   -7.4240    0.6383    1.5279 H   0  0  0  0  0  0  0  0  0  0  0  0
   -6.7475   -0.5997   -0.4982 H   0  0  0  0  0  0  0  0  0  0  0  0
   -0.1365   -2.9351    0.4814 H   0  0  0  0  0  0  0  0  0  0  0  0
    1.4360   -2.3425   -0.0134 H   0  0  0  0  0  0  0  0  0  0  0  0
    0.7756   -1.8371    1.5489 H   0  0  0  0  0  0  0  0  0  0  0  0
    2.2819    1.3853    0.5686 H   0  0  0  0  0  0  0  0  0  0  0  0
    3.1939    0.1769    1.4685 H   0  0  0  0  0  0  0  0  0  0  0  0
    4.4824    2.3305    1.1844 H   0  0  0  0  0  0  0  0  0  0  0  0
    4.4280    2.1350   -0.5691 H   0  0  0  0  0  0  0  0  0  0  0  0
    5.2468   -1.1776    0.7797 H   0  0  0  0  0  0  0  0  0  0  0  0
    6.4470   -0.8352   -0.4694 H   0  0  0  0  0  0  0  0  0  0  0  0
    4.6450    0.0404   -1.9766 H   0  0  0  0  0  0  0  0  0  0  0  0
    4.3510   -1.6595   -1.5175 H   0  0  0  0  0  0  0  0  0  0  0  0
  1  2  1  0
  2  3  2  0
  3  4  1  0
  4  5  1  0
  5  6  2  0
  5  7  1  0
  7  8  2  0
  8  9  1  0
  9 10  2  0
 10 11  1  0
 11 12  2  0
 12 13  1  0
  4 14  1  0
 14 15  1  0
 14 16  2  0
 16 17  1  0
 17 18  2  0
 17 19  2  0
 17 20  1  0
 20 21  1  0
 21 22  1  0
 22 23  1  0
 23 24  1  0
 24 25  1  0
 16  2  1  0
 25 20  1  0
 12  7  1  0
  1 26  1  0
  1 27  1  0
  1 28  1  0
  8 29  1  0
  9 30  1  0
 10 31  1  0
 11 32  1  0
 15 33  1  0
 15 34  1  0
 15 35  1  0
 21 36  1  0
 21 37  1  0
 22 38  1  0
 22 39  1  0
 24 40  1  0
 24 41  1  0
 25 42  1  0
 25 43  1  0
M  END
$$$$
