
     RDKit          3D

 55 58  0  0  0  0  0  0  0  0999 V2000
   -5.3175    1.0756   -0.4851 C   0  0  0  0  0  0  0  0  0  0  0  0
   -4.8243    0.9081   -1.8220 O   0  0  0  0  0  0  0  0  0  0  0  0
   -3.9614   -0.1546   -1.8950 C   0  0  0  0  0  0  0  0  0  0  0  0
   -2.7085   -0.0909   -1.2747 C   0  0  0  0  0  0  0  0  0  0  0  0
   -1.8239   -1.1840   -1.3265 C   0  0  0  0  0  0  0  0  0  0  0  0
   -0.4667   -1.1647   -0.6471 C   0  0  0  0  0  0  0  0  0  0  0  0
    0.0438    0.1731   -0.5857 O   0  0  0  0  0  0  0  0  0  0  0  0
    0.2352    0.3908    0.7409 C   0  0  0  0  0  0  0  0  0  0  0  0
    0.7649    1.7291    1.1260 C   0  0  0  0  0  0  0  0  0  0  0  0
    2.0567    1.9993    0.5320 N   0  0  0  0  0  0  0  0  0  0  0  0
    2.1876    2.6766   -0.6595 C   0  0  0  0  0  0  0  0  0  0  0  0
    3.4431    2.8278   -1.0035 N   0  0  0  0  0  0  0  0  0  0  0  0
    4.1561    2.2244    0.0015 C   0  0  0  0  0  0  0  0  0  0  0  0
    5.5924    2.1053    0.1072 C   0  0  0  0  0  0  0  0  0  0  0  0
    6.3620    2.5870   -0.7200 O   0  0  0  0  0  0  0  0  0  0  0  0
    6.0046    1.3965    1.2420 N   0  0  0  0  0  0  0  0  0  0  0  0
    7.4300    1.2085    1.4262 C   0  0  0  0  0  0  0  0  0  0  0  0
    5.1759    0.9134    2.2670 C   0  0  0  0  0  0  0  0  0  0  0  0
    5.6566    0.3898    3.2777 O   0  0  0  0  0  0  0  0  0  0  0  0
    3.7798    1.0497    2.1052 N   0  0  0  0  0  0  0  0  0  0  0  0
    2.9347    0.5069    3.1548 C   0  0  0  0  0  0  0  0  0  0  0  0
    3.3256    1.7057    0.9685 C   0  0  0  0  0  0  0  0  0  0  0  0
   -0.0655   -0.5659    1.5637 N   0  0  0  0  0  0  0  0  0  0  0  0
   -0.5095   -1.5674    0.7466 N   0  0  0  0  0  0  0  0  0  0  0  0
   -0.6208   -2.8797    1.1601 C   0  0  0  0  0  0  0  0  0  0  0  0
   -0.5275   -3.1125    2.6476 C   0  0  0  0  0  0  0  0  0  0  0  0
   -0.7551   -3.8196    0.3754 O   0  0  0  0  0  0  0  0  0  0  0  0
   -2.2337   -2.3376   -2.0121 C   0  0  0  0  0  0  0  0  0  0  0  0
   -3.4740   -2.3922   -2.6519 C   0  0  0  0  0  0  0  0  0  0  0  0
   -4.3237   -1.2919   -2.6258 C   0  0  0  0  0  0  0  0  0  0  0  0
   -5.5200   -1.4433   -3.2722 O   0  0  0  0  0  0  0  0  0  0  0  0
   -5.8020   -0.3774   -4.1971 C   0  0  0  0  0  0  0  0  0  0  0  0
   -6.3321   -0.9361   -5.4595 C   0  0  0  0  0  0  0  0  0  0  0  0
   -6.7284   -1.3452   -6.4751 N   0  0  0  0  0  0  0  0  0  0  0  0
   -6.0939    1.8530   -0.5117 H   0  0  0  0  0  0  0  0  0  0  0  0
   -5.7761    0.1504   -0.1067 H   0  0  0  0  0  0  0  0  0  0  0  0
   -4.5237    1.4100    0.1952 H   0  0  0  0  0  0  0  0  0  0  0  0
   -2.4274    0.8181   -0.7480 H   0  0  0  0  0  0  0  0  0  0  0  0
    0.2545   -1.7861   -1.1965 H   0  0  0  0  0  0  0  0  0  0  0  0
    0.0599    2.4946    0.7816 H   0  0  0  0  0  0  0  0  0  0  0  0
    0.8361    1.8277    2.2091 H   0  0  0  0  0  0  0  0  0  0  0  0
    1.3381    3.0311   -1.2307 H   0  0  0  0  0  0  0  0  0  0  0  0
    7.6262    0.1761    1.7303 H   0  0  0  0  0  0  0  0  0  0  0  0
    7.9995    1.4166    0.5171 H   0  0  0  0  0  0  0  0  0  0  0  0
    7.7720    1.8746    2.2231 H   0  0  0  0  0  0  0  0  0  0  0  0
    2.2564   -0.2288    2.7204 H   0  0  0  0  0  0  0  0  0  0  0  0
    2.3806    1.3218    3.6262 H   0  0  0  0  0  0  0  0  0  0  0  0
    3.5072    0.0000    3.9361 H   0  0  0  0  0  0  0  0  0  0  0  0
    0.5235   -3.1238    2.9497 H   0  0  0  0  0  0  0  0  0  0  0  0
   -1.0705   -2.3409    3.2020 H   0  0  0  0  0  0  0  0  0  0  0  0
   -0.9807   -4.0783    2.8897 H   0  0  0  0  0  0  0  0  0  0  0  0
   -1.5929   -3.2205   -2.0386 H   0  0  0  0  0  0  0  0  0  0  0  0
   -3.7754   -3.3020   -3.1724 H   0  0  0  0  0  0  0  0  0  0  0  0
   -6.5568    0.2813   -3.7432 H   0  0  0  0  0  0  0  0  0  0  0  0
   -4.9111    0.2206   -4.4370 H   0  0  0  0  0  0  0  0  0  0  0  0
  1  2  1  0
  2  3  1  0
  3  4  2  0
  4  5  1  0
  5  6  1  0
  6  7  1  0
  7  8  1  0
  8  9  1  0
  9 10  1  0
 10 11  1  0
 11 12  2  0
 12 13  1  0
 13 14  1  0
 14 15  2  0
 14 16  1  0
 16 17  1  0
 16 18  1  0
 18 19  2  0
 18 20  1  0
 20 21  1  0
 20 22  1  0
  8 23  2  0
 23 24  1  0
 24 25  1  0
 25 26  1  0
 25 27  2  0
  5 28  2  0
 28 29  1  0
 29 30  2  0
 30 31  1  0
 31 32  1  0
 32 33  1  0
 33 34  3  0
 30  3  1  0
 24  6  1  0
 22 10  1  0
 22 13  2  0
  1 35  1  0
  1 36  1  0
  1 37  1  0
  4 38  1  0
  6 39  1  0
  9 40  1  0
  9 41  1  0
 11 42  1  0
 17 43  1  0
 17 44  1  0
 17 45  1  0
 21 46  1  0
 21 47  1  0
 21 48  1  0
 26 49  1  0
 26 50  1  0
 26 51  1  0
 28 52  1  0
 29 53  1  0
 32 54  1  0
 32 55  1  0
M  END
$$$$
