
     RDKit          3D

 57 59  0  0  0  0  0  0  0  0999 V2000
    8.1200   -0.7530    0.1917 C   0  0  0  0  0  0  0  0  0  0  0  0
    7.1748    0.2893    0.3832 O   0  0  0  0  0  0  0  0  0  0  0  0
    5.9478    0.1458   -0.2157 C   0  0  0  0  0  0  0  0  0  0  0  0
    5.6147   -0.8878   -1.0980 C   0  0  0  0  0  0  0  0  0  0  0  0
    4.3426   -0.9486   -1.6677 C   0  0  0  0  0  0  0  0  0  0  0  0
    3.4004    0.0298   -1.3518 C   0  0  0  0  0  0  0  0  0  0  0  0
    1.7967   -0.0199   -2.1049 S   0  0  0  0  0  6  0  0  0  0  0  0
    1.3545    1.3397   -2.3731 O   0  0  0  0  0  0  0  0  0  0  0  0
    1.7950   -1.0459   -3.1312 O   0  0  0  0  0  0  0  0  0  0  0  0
    0.7277   -0.6061   -0.8628 N   0  0  0  0  0  0  0  0  0  0  0  0
    0.9938   -0.5055    0.4678 N   0  0  0  0  0  0  0  0  0  0  0  0
   -0.0989   -0.9907    1.0686 C   0  0  0  0  0  0  0  0  0  0  0  0
   -0.1125   -1.0919    2.5515 C   0  0  0  0  0  0  0  0  0  0  0  0
   -1.1025   -1.3294    0.1273 C   0  0  0  0  0  0  0  0  0  0  0  0
   -2.6746   -1.9588    0.4999 S   0  0  0  0  0  6  0  0  0  0  0  0
   -2.5524   -2.4766    1.8447 O   0  0  0  0  0  0  0  0  0  0  0  0
   -2.9796   -2.8334   -0.6110 O   0  0  0  0  0  0  0  0  0  0  0  0
   -3.7864   -0.6731    0.5181 N   0  0  0  0  0  0  0  0  0  0  0  0
   -3.5961    0.3433    1.5794 C   0  0  0  0  0  0  0  0  0  0  0  0
   -4.8790    1.1467    1.7611 C   0  0  0  0  0  0  0  0  0  0  0  0
   -5.3482    1.7607    0.4418 C   0  0  0  0  0  0  0  0  0  0  0  0
   -5.4563    0.7129   -0.6742 C   0  0  0  0  0  0  0  0  0  0  0  0
   -6.6593   -0.2159   -0.4709 C   0  0  0  0  0  0  0  0  0  0  0  0
   -4.1481   -0.0849   -0.7928 C   0  0  0  0  0  0  0  0  0  0  0  0
   -0.5616   -1.0425   -1.1212 C   0  0  0  0  0  0  0  0  0  0  0  0
   -1.1123   -1.1817   -2.4953 C   0  0  0  0  0  0  0  0  0  0  0  0
    3.7207    1.0784   -0.4850 C   0  0  0  0  0  0  0  0  0  0  0  0
    4.9901    1.1331    0.0967 C   0  0  0  0  0  0  0  0  0  0  0  0
    5.3975    2.1162    0.9623 O   0  0  0  0  0  0  0  0  0  0  0  0
    4.3923    2.9453    1.5255 C   0  0  0  0  0  0  0  0  0  0  0  0
    9.0164   -0.5026    0.7644 H   0  0  0  0  0  0  0  0  0  0  0  0
    7.7388   -1.7089    0.5732 H   0  0  0  0  0  0  0  0  0  0  0  0
    8.4136   -0.8327   -0.8610 H   0  0  0  0  0  0  0  0  0  0  0  0
    6.3279   -1.6586   -1.3699 H   0  0  0  0  0  0  0  0  0  0  0  0
    4.1059   -1.7546   -2.3587 H   0  0  0  0  0  0  0  0  0  0  0  0
    0.7728   -0.6120    2.9892 H   0  0  0  0  0  0  0  0  0  0  0  0
   -0.9929   -0.5952    2.9693 H   0  0  0  0  0  0  0  0  0  0  0  0
   -0.1098   -2.1425    2.8644 H   0  0  0  0  0  0  0  0  0  0  0  0
   -3.3601   -0.1366    2.5339 H   0  0  0  0  0  0  0  0  0  0  0  0
   -2.7659    1.0075    1.3123 H   0  0  0  0  0  0  0  0  0  0  0  0
   -5.6651    0.4966    2.1675 H   0  0  0  0  0  0  0  0  0  0  0  0
   -4.7156    1.9425    2.4973 H   0  0  0  0  0  0  0  0  0  0  0  0
   -6.3110    2.2696    0.5858 H   0  0  0  0  0  0  0  0  0  0  0  0
   -4.6269    2.5355    0.1367 H   0  0  0  0  0  0  0  0  0  0  0  0
   -5.6184    1.2453   -1.6210 H   0  0  0  0  0  0  0  0  0  0  0  0
   -6.7674   -0.8938   -1.3226 H   0  0  0  0  0  0  0  0  0  0  0  0
   -6.5648   -0.8281    0.4311 H   0  0  0  0  0  0  0  0  0  0  0  0
   -7.5857    0.3622   -0.3909 H   0  0  0  0  0  0  0  0  0  0  0  0
   -4.2858   -0.8687   -1.5432 H   0  0  0  0  0  0  0  0  0  0  0  0
   -3.3396    0.5751   -1.1302 H   0  0  0  0  0  0  0  0  0  0  0  0
   -2.1888   -1.3314   -2.4904 H   0  0  0  0  0  0  0  0  0  0  0  0
   -0.9266   -0.2884   -3.0934 H   0  0  0  0  0  0  0  0  0  0  0  0
   -0.6683   -2.0433   -3.0003 H   0  0  0  0  0  0  0  0  0  0  0  0
    2.9735    1.8380   -0.2803 H   0  0  0  0  0  0  0  0  0  0  0  0
    3.6212    2.3501    2.0246 H   0  0  0  0  0  0  0  0  0  0  0  0
    4.8633    3.5775    2.2824 H   0  0  0  0  0  0  0  0  0  0  0  0
    3.9584    3.6026    0.7658 H   0  0  0  0  0  0  0  0  0  0  0  0
  1  2  1  0
  2  3  1  0
  3  4  2  0
  4  5  1  0
  5  6  2  0
  6  7  1  0
  7  8  2  0
  7  9  2  0
  7 10  1  0
 10 11  1  0
 11 12  2  0
 12 13  1  0
 12 14  1  0
 14 15  1  0
 15 16  2  0
 15 17  2  0
 15 18  1  0
 18 19  1  0
 19 20  1  0
 20 21  1  0
 21 22  1  0
 22 23  1  0
 22 24  1  0
 14 25  2  0
 25 26  1  0
  6 27  1  0
 27 28  2  0
 28 29  1  0
 29 30  1  0
 28  3  1  0
 25 10  1  0
 24 18  1  0
  1 31  1  0
  1 32  1  0
  1 33  1  0
  4 34  1  0
  5 35  1  0
 13 36  1  0
 13 37  1  0
 13 38  1  0
 19 39  1  0
 19 40  1  0
 20 41  1  0
 20 42  1  0
 21 43  1  0
 21 44  1  0
 22 45  1  0
 23 46  1  0
 23 47  1  0
 23 48  1  0
 24 49  1  0
 24 50  1  0
 26 51  1  0
 26 52  1  0
 26 53  1  0
 27 54  1  0
 30 55  1  0
 30 56  1  0
 30 57  1  0
M  END
$$$$
