
     RDKit          3D

 42 45  0  0  0  0  0  0  0  0999 V2000
   -6.7531   -1.4229   -1.4766 C   0  0  0  0  0  0  0  0  0  0  0  0
   -6.3721   -2.3035   -0.2953 C   0  0  0  0  0  0  0  0  0  0  0  0
   -4.9282   -2.7988   -0.3628 C   0  0  0  0  0  0  0  0  0  0  0  0
   -3.9380   -1.6946   -0.1380 C   0  0  0  0  0  0  0  0  0  0  0  0
   -3.3797   -1.0272   -1.0973 N   0  0  0  0  0  0  0  0  0  0  0  0
   -2.5382   -0.0846   -0.5493 N   0  0  0  0  0  0  0  0  0  0  0  0
   -1.8241    0.7987   -1.3290 C   0  0  0  0  0  0  0  0  0  0  0  0
   -1.8429    0.8758   -2.5533 O   0  0  0  0  0  0  0  0  0  0  0  0
   -0.9850    1.7318   -0.5430 C   0  0  0  0  0  0  0  0  0  0  0  0
   -0.9895    1.6688    0.8008 C   0  0  0  0  0  0  0  0  0  0  0  0
   -0.1579    2.6334    1.6224 C   0  0  0  0  0  0  0  0  0  0  0  0
    1.2533    1.7904    2.4040 S   0  0  0  0  0  0  0  0  0  0  0  0
    2.3413    1.6535    1.0689 C   0  0  0  0  0  0  0  0  0  0  0  0
    2.2485    2.2927   -0.0722 N   0  0  0  0  0  0  0  0  0  0  0  0
    3.3256    1.9261   -0.8410 N   0  0  0  0  0  0  0  0  0  0  0  0
    4.0725    1.0951   -0.1389 C   0  0  0  0  0  0  0  0  0  0  0  0
    5.3114    0.5513   -0.6061 C   0  0  0  0  0  0  0  0  0  0  0  0
    6.4685    0.2413    0.0942 C   0  0  0  0  0  0  0  0  0  0  0  0
    7.4118   -0.2539   -0.8400 C   0  0  0  0  0  0  0  0  0  0  0  0
    6.7894   -0.2100   -2.0616 C   0  0  0  0  0  0  0  0  0  0  0  0
    5.5312    0.2762   -1.9333 O   0  0  0  0  0  0  0  0  0  0  0  0
    3.4557    0.8593    1.0682 N   0  0  0  0  0  0  0  0  0  0  0  0
    3.8614   -0.0756    2.0850 C   0  0  0  0  0  0  0  0  0  0  0  0
   -1.7629    0.7754    1.5194 N   0  0  0  0  0  0  0  0  0  0  0  0
   -2.4746   -0.0392    0.8170 C   0  0  0  0  0  0  0  0  0  0  0  0
   -3.5113   -1.2508    1.4981 S   0  0  0  0  0  0  0  0  0  0  0  0
   -7.8145   -1.1614   -1.4230 H   0  0  0  0  0  0  0  0  0  0  0  0
   -6.1803   -0.4907   -1.4822 H   0  0  0  0  0  0  0  0  0  0  0  0
   -6.5798   -1.9415   -2.4243 H   0  0  0  0  0  0  0  0  0  0  0  0
   -6.5480   -1.7521    0.6353 H   0  0  0  0  0  0  0  0  0  0  0  0
   -7.0387   -3.1736   -0.2825 H   0  0  0  0  0  0  0  0  0  0  0  0
   -4.7741   -3.5730    0.3979 H   0  0  0  0  0  0  0  0  0  0  0  0
   -4.7291   -3.2606   -1.3368 H   0  0  0  0  0  0  0  0  0  0  0  0
   -0.3813    2.4332   -1.1072 H   0  0  0  0  0  0  0  0  0  0  0  0
   -0.7826    3.0507    2.4207 H   0  0  0  0  0  0  0  0  0  0  0  0
    0.1900    3.4875    1.0303 H   0  0  0  0  0  0  0  0  0  0  0  0
    6.6282    0.3745    1.1545 H   0  0  0  0  0  0  0  0  0  0  0  0
    8.4221   -0.5877   -0.6496 H   0  0  0  0  0  0  0  0  0  0  0  0
    7.0889   -0.4681   -3.0680 H   0  0  0  0  0  0  0  0  0  0  0  0
    2.9870   -0.4647    2.6110 H   0  0  0  0  0  0  0  0  0  0  0  0
    4.5241    0.4415    2.7828 H   0  0  0  0  0  0  0  0  0  0  0  0
    4.3749   -0.9226    1.6242 H   0  0  0  0  0  0  0  0  0  0  0  0
  1  2  1  0
  2  3  1  0
  3  4  1  0
  4  5  2  0
  5  6  1  0
  6  7  1  0
  7  8  2  0
  7  9  1  0
  9 10  2  0
 10 11  1  0
 11 12  1  0
 12 13  1  0
 13 14  2  0
 14 15  1  0
 15 16  2  0
 16 17  1  0
 17 18  2  0
 18 19  1  0
 19 20  2  0
 20 21  1  0
 16 22  1  0
 22 23  1  0
 10 24  1  0
 24 25  2  0
 25 26  1  0
 26  4  1  0
 25  6  1  0
 22 13  1  0
 21 17  1  0
  1 27  1  0
  1 28  1  0
  1 29  1  0
  2 30  1  0
  2 31  1  0
  3 32  1  0
  3 33  1  0
  9 34  1  0
 11 35  1  0
 11 36  1  0
 18 37  1  0
 19 38  1  0
 20 39  1  0
 23 40  1  0
 23 41  1  0
 23 42  1  0
M  END
$$$$
