
     RDKit          3D

 38 40  0  0  0  0  0  0  0  0999 V2000
    7.2864    0.4441    0.0896 C   0  0  0  0  0  0  0  0  0  0  0  0
    6.4666   -0.6881    0.3519 O   0  0  0  0  0  0  0  0  0  0  0  0
    5.1191   -0.5244    0.1928 C   0  0  0  0  0  0  0  0  0  0  0  0
    4.4730    0.6462   -0.1995 C   0  0  0  0  0  0  0  0  0  0  0  0
    3.0763    0.6784   -0.3245 C   0  0  0  0  0  0  0  0  0  0  0  0
    2.3119   -0.4577   -0.0586 C   0  0  0  0  0  0  0  0  0  0  0  0
    0.9110   -0.5051   -0.1606 N   0  0  0  0  0  0  0  0  0  0  0  0
    0.0386    0.5152   -0.5113 C   0  0  0  0  0  0  0  0  0  0  0  0
    0.3437    1.6685   -0.8132 O   0  0  0  0  0  0  0  0  0  0  0  0
   -1.4459    0.0520   -0.5271 C   0  0  0  0  0  0  0  0  0  0  0  0
   -2.3013    1.1160   -0.0313 N   0  0  0  0  0  0  0  0  0  0  0  0
   -3.6787    0.8702   -0.0350 C   0  0  0  0  0  0  0  0  0  0  0  0
   -4.5684    1.9479    0.0297 C   0  0  0  0  0  0  0  0  0  0  0  0
   -5.9429    1.7265    0.1208 C   0  0  0  0  0  0  0  0  0  0  0  0
   -6.7745    2.7754    0.1632 F   0  0  0  0  0  0  0  0  0  0  0  0
   -6.4656    0.4394    0.1814 C   0  0  0  0  0  0  0  0  0  0  0  0
   -5.5983   -0.6488    0.1614 C   0  0  0  0  0  0  0  0  0  0  0  0
   -4.2206   -0.4189    0.0607 C   0  0  0  0  0  0  0  0  0  0  0  0
   -3.1259   -1.7975    0.0940 S   0  0  0  0  0  6  0  0  0  0  0  0
   -3.0961   -2.3666   -1.2339 O   0  0  0  0  0  0  0  0  0  0  0  0
   -3.4179   -2.5845    1.2697 O   0  0  0  0  0  0  0  0  0  0  0  0
   -1.6343   -1.0779    0.3705 N   0  0  0  0  0  0  0  0  0  0  0  0
    2.9637   -1.6307    0.3342 C   0  0  0  0  0  0  0  0  0  0  0  0
    4.3560   -1.6613    0.4583 C   0  0  0  0  0  0  0  0  0  0  0  0
    8.3266    0.1502    0.2601 H   0  0  0  0  0  0  0  0  0  0  0  0
    7.0559    1.2658    0.7757 H   0  0  0  0  0  0  0  0  0  0  0  0
    7.1973    0.7627   -0.9542 H   0  0  0  0  0  0  0  0  0  0  0  0
    5.0205    1.5571   -0.4178 H   0  0  0  0  0  0  0  0  0  0  0  0
    2.6203    1.6138   -0.6333 H   0  0  0  0  0  0  0  0  0  0  0  0
    0.4587   -1.3875    0.0712 H   0  0  0  0  0  0  0  0  0  0  0  0
   -1.6621   -0.1983   -1.5735 H   0  0  0  0  0  0  0  0  0  0  0  0
   -2.0375    2.0170   -0.4376 H   0  0  0  0  0  0  0  0  0  0  0  0
   -4.2097    2.9731    0.0138 H   0  0  0  0  0  0  0  0  0  0  0  0
   -7.5392    0.2968    0.2596 H   0  0  0  0  0  0  0  0  0  0  0  0
   -5.9888   -1.6617    0.2329 H   0  0  0  0  0  0  0  0  0  0  0  0
   -1.5729   -0.7890    1.3480 H   0  0  0  0  0  0  0  0  0  0  0  0
    2.4050   -2.5379    0.5489 H   0  0  0  0  0  0  0  0  0  0  0  0
    4.8497   -2.5806    0.7645 H   0  0  0  0  0  0  0  0  0  0  0  0
  1  2  1  0
  2  3  1  0
  3  4  2  0
  4  5  1  0
  5  6  2  0
  6  7  1  0
  7  8  1  0
  8  9  2  0
  8 10  1  0
 10 11  1  0
 11 12  1  0
 12 13  2  0
 13 14  1  0
 14 15  1  0
 14 16  2  0
 16 17  1  0
 17 18  2  0
 18 19  1  0
 19 20  2  0
 19 21  2  0
 19 22  1  0
  6 23  1  0
 23 24  2  0
 24  3  1  0
 22 10  1  0
 18 12  1  0
  1 25  1  0
  1 26  1  0
  1 27  1  0
  4 28  1  0
  5 29  1  0
  7 30  1  0
 10 31  1  0
 11 32  1  0
 13 33  1  0
 16 34  1  0
 17 35  1  0
 22 36  1  0
 23 37  1  0
 24 38  1  0
M  END
$$$$
