
     RDKit          3D

 60 63  0  0  0  0  0  0  0  0999 V2000
   -7.9972   -2.7887   -1.0950 C   0  0  0  0  0  0  0  0  0  0  0  0
   -7.9998   -1.5525   -0.3963 O   0  0  0  0  0  0  0  0  0  0  0  0
   -6.8409   -0.8149   -0.3921 C   0  0  0  0  0  0  0  0  0  0  0  0
   -5.6545   -1.1995   -1.0290 C   0  0  0  0  0  0  0  0  0  0  0  0
   -4.5058   -0.3933   -0.9733 C   0  0  0  0  0  0  0  0  0  0  0  0
   -4.5587    0.8248   -0.2901 C   0  0  0  0  0  0  0  0  0  0  0  0
   -5.7484    1.2142    0.3506 C   0  0  0  0  0  0  0  0  0  0  0  0
   -6.8860    0.4018    0.3112 C   0  0  0  0  0  0  0  0  0  0  0  0
   -8.0824    0.7095    0.9096 O   0  0  0  0  0  0  0  0  0  0  0  0
   -8.1377    1.8825    1.7083 C   0  0  0  0  0  0  0  0  0  0  0  0
   -3.3622    1.7325   -0.2717 C   0  0  0  0  0  0  0  0  0  0  0  0
   -2.1542    1.1225    0.4068 C   0  0  0  0  0  0  0  0  0  0  0  0
   -1.7094    1.6264    1.4434 O   0  0  0  0  0  0  0  0  0  0  0  0
   -1.5216    0.0561   -0.2354 N   0  0  0  0  0  0  0  0  0  0  0  0
   -0.1449   -0.2248    0.1946 C   0  0  0  0  0  0  0  0  0  0  0  0
    0.8877    0.6205   -0.5710 C   0  0  0  0  0  0  0  0  0  0  0  0
    0.5811    1.2470   -1.5885 O   0  0  0  0  0  0  0  0  0  0  0  0
    2.1920    0.6176   -0.0839 N   0  0  0  0  0  0  0  0  0  0  0  0
    2.7472   -0.4111    0.8054 C   0  0  0  0  0  0  0  0  0  0  0  0
    3.5824   -1.4290   -0.0064 C   0  0  0  0  0  0  0  0  0  0  0  0
    4.6225   -0.7562   -0.8208 N   0  0  0  0  0  0  0  0  0  0  0  0
    5.7957   -0.4362   -0.1218 C   0  0  0  0  0  0  0  0  0  0  0  0
    6.5439   -1.4485    0.4805 C   0  0  0  0  0  0  0  0  0  0  0  0
    7.7180   -1.1387    1.1677 C   0  0  0  0  0  0  0  0  0  0  0  0
    8.1401    0.1866    1.2455 C   0  0  0  0  0  0  0  0  0  0  0  0
    9.4039    0.5849    1.9398 C   0  0  0  0  0  0  0  0  0  0  0  0
    9.3990    1.8767    2.3687 F   0  0  0  0  0  0  0  0  0  0  0  0
   10.4971    0.4603    1.1393 F   0  0  0  0  0  0  0  0  0  0  0  0
    9.6618   -0.1699    3.0442 F   0  0  0  0  0  0  0  0  0  0  0  0
    7.3597    1.1310    0.6038 C   0  0  0  0  0  0  0  0  0  0  0  0
    6.2174    0.8449   -0.0663 N   0  0  0  0  0  0  0  0  0  0  0  0
    4.0822    0.3491   -1.6598 C   0  0  0  0  0  0  0  0  0  0  0  0
    3.2273    1.3381   -0.8391 C   0  0  0  0  0  0  0  0  0  0  0  0
   -2.0193   -0.6667   -1.3082 C   0  0  0  0  0  0  0  0  0  0  0  0
   -3.2968   -0.8513   -1.6701 C   0  0  0  0  0  0  0  0  0  0  0  0
   -8.9917   -3.2323   -0.9927 H   0  0  0  0  0  0  0  0  0  0  0  0
   -7.2762   -3.4879   -0.6589 H   0  0  0  0  0  0  0  0  0  0  0  0
   -7.8077   -2.6388   -2.1638 H   0  0  0  0  0  0  0  0  0  0  0  0
   -5.5995   -2.1381   -1.5706 H   0  0  0  0  0  0  0  0  0  0  0  0
   -5.7631    2.1664    0.8720 H   0  0  0  0  0  0  0  0  0  0  0  0
   -9.1387    1.9407    2.1471 H   0  0  0  0  0  0  0  0  0  0  0  0
   -7.4166    1.8380    2.5313 H   0  0  0  0  0  0  0  0  0  0  0  0
   -7.9902    2.7804    1.0995 H   0  0  0  0  0  0  0  0  0  0  0  0
   -3.0953    2.0347   -1.2919 H   0  0  0  0  0  0  0  0  0  0  0  0
   -3.5999    2.6644    0.2570 H   0  0  0  0  0  0  0  0  0  0  0  0
    0.0711   -1.2870    0.0281 H   0  0  0  0  0  0  0  0  0  0  0  0
   -0.0489   -0.0192    1.2659 H   0  0  0  0  0  0  0  0  0  0  0  0
    3.3768    0.0995    1.5433 H   0  0  0  0  0  0  0  0  0  0  0  0
    1.9620   -0.9384    1.3504 H   0  0  0  0  0  0  0  0  0  0  0  0
    3.9972   -2.1892    0.6642 H   0  0  0  0  0  0  0  0  0  0  0  0
    2.9157   -1.9617   -0.6965 H   0  0  0  0  0  0  0  0  0  0  0  0
    6.2374   -2.4859    0.3910 H   0  0  0  0  0  0  0  0  0  0  0  0
    8.3001   -1.9353    1.6266 H   0  0  0  0  0  0  0  0  0  0  0  0
    7.6298    2.1853    0.6010 H   0  0  0  0  0  0  0  0  0  0  0  0
    3.4455   -0.1088   -2.4278 H   0  0  0  0  0  0  0  0  0  0  0  0
    4.8782    0.8731   -2.2032 H   0  0  0  0  0  0  0  0  0  0  0  0
    2.7813    2.0838   -1.5049 H   0  0  0  0  0  0  0  0  0  0  0  0
    3.8362    1.8814   -0.1088 H   0  0  0  0  0  0  0  0  0  0  0  0
   -1.2603   -1.1916   -1.8885 H   0  0  0  0  0  0  0  0  0  0  0  0
   -3.4819   -1.4796   -2.5405 H   0  0  0  0  0  0  0  0  0  0  0  0
  1  2  1  0
  2  3  1  0
  3  4  2  0
  4  5  1  0
  5  6  2  0
  6  7  1  0
  7  8  2  0
  8  9  1  0
  9 10  1  0
  6 11  1  0
 11 12  1  0
 12 13  2  0
 12 14  1  0
 14 15  1  0
 15 16  1  0
 16 17  2  0
 16 18  1  0
 18 19  1  0
 19 20  1  0
 20 21  1  0
 21 22  1  0
 22 23  2  0
 23 24  1  0
 24 25  2  0
 25 26  1  0
 26 27  1  0
 26 28  1  0
 26 29  1  0
 25 30  1  0
 30 31  2  0
 21 32  1  0
 32 33  1  0
 14 34  1  0
 34 35  2  0
  8  3  1  0
 33 18  1  0
 35  5  1  0
 31 22  1  0
  1 36  1  0
  1 37  1  0
  1 38  1  0
  4 39  1  0
  7 40  1  0
 10 41  1  0
 10 42  1  0
 10 43  1  0
 11 44  1  0
 11 45  1  0
 15 46  1  0
 15 47  1  0
 19 48  1  0
 19 49  1  0
 20 50  1  0
 20 51  1  0
 23 52  1  0
 24 53  1  0
 30 54  1  0
 32 55  1  0
 32 56  1  0
 33 57  1  0
 33 58  1  0
 34 59  1  0
 35 60  1  0
M  END
$$$$
