
     RDKit          3D

 43 45  0  0  0  0  0  0  0  0999 V2000
    4.4283    2.2465   -0.9250 C   0  0  0  0  0  0  0  0  0  0  0  0
    4.2413    1.2972    0.2158 C   0  0  0  0  0  0  0  0  0  0  0  0
    4.7948    1.5657    1.4692 C   0  0  0  0  0  0  0  0  0  0  0  0
    4.6158    0.6737    2.5241 C   0  0  0  0  0  0  0  0  0  0  0  0
    3.8819   -0.4962    2.3337 C   0  0  0  0  0  0  0  0  0  0  0  0
    3.3193   -0.7850    1.0851 C   0  0  0  0  0  0  0  0  0  0  0  0
    2.5504   -2.0681    0.8735 C   0  0  0  0  0  0  0  0  0  0  0  0
    1.1950   -1.8963    0.2067 C   0  0  0  0  0  0  0  0  0  0  0  0
    0.8108   -2.6704   -0.6696 O   0  0  0  0  0  0  0  0  0  0  0  0
    0.4126   -0.9019    0.7646 N   0  0  0  0  0  0  0  0  0  0  0  0
   -0.8001   -0.4891    0.2448 C   0  0  0  0  0  0  0  0  0  0  0  0
   -1.8321   -0.0704    1.0015 C   0  0  0  0  0  0  0  0  0  0  0  0
   -1.8031   -0.0633    2.5086 C   0  0  0  0  0  0  0  0  0  0  0  0
   -3.0617    0.2721    0.4927 N   0  0  0  0  0  0  0  0  0  0  0  0
   -3.2753    0.1222   -0.7786 C   0  0  0  0  0  0  0  0  0  0  0  0
   -4.6524    0.3716   -1.3341 C   0  0  0  0  0  0  0  0  0  0  0  0
   -5.7337    0.7417   -0.3659 C   0  0  0  0  0  0  0  0  0  0  0  0
   -4.8571    0.2360   -2.6510 C   0  0  0  0  0  0  0  0  0  0  0  0
   -3.7841   -0.1265   -3.5346 C   0  0  0  0  0  0  0  0  0  0  0  0
   -2.5626   -0.3497   -3.0395 C   0  0  0  0  0  0  0  0  0  0  0  0
   -2.2937   -0.2576   -1.6798 N   0  0  0  0  0  0  0  0  0  0  0  0
   -0.9823   -0.4009   -1.2454 C   0  0  0  0  0  0  0  0  0  0  0  0
   -0.0022   -0.3472   -1.9952 O   0  0  0  0  0  0  0  0  0  0  0  0
    3.5151    0.1153    0.0296 C   0  0  0  0  0  0  0  0  0  0  0  0
    3.4544    2.5607   -1.3175 H   0  0  0  0  0  0  0  0  0  0  0  0
    4.9714    3.1479   -0.6142 H   0  0  0  0  0  0  0  0  0  0  0  0
    5.0038    1.7749   -1.7240 H   0  0  0  0  0  0  0  0  0  0  0  0
    5.3731    2.4726    1.6349 H   0  0  0  0  0  0  0  0  0  0  0  0
    5.0532    0.8930    3.4946 H   0  0  0  0  0  0  0  0  0  0  0  0
    3.7612   -1.1798    3.1695 H   0  0  0  0  0  0  0  0  0  0  0  0
    3.1637   -2.7351    0.2532 H   0  0  0  0  0  0  0  0  0  0  0  0
    2.3755   -2.5767    1.8285 H   0  0  0  0  0  0  0  0  0  0  0  0
    0.6646   -0.5972    1.6960 H   0  0  0  0  0  0  0  0  0  0  0  0
   -2.7503   -0.4320    2.9128 H   0  0  0  0  0  0  0  0  0  0  0  0
   -1.6588    0.9583    2.8776 H   0  0  0  0  0  0  0  0  0  0  0  0
   -1.0223   -0.6938    2.9338 H   0  0  0  0  0  0  0  0  0  0  0  0
   -5.8612   -0.0437    0.3815 H   0  0  0  0  0  0  0  0  0  0  0  0
   -6.6990    0.8758   -0.8633 H   0  0  0  0  0  0  0  0  0  0  0  0
   -5.4922    1.6819    0.1377 H   0  0  0  0  0  0  0  0  0  0  0  0
   -5.8369    0.3984   -3.0897 H   0  0  0  0  0  0  0  0  0  0  0  0
   -3.9832   -0.2116   -4.6022 H   0  0  0  0  0  0  0  0  0  0  0  0
   -1.7315   -0.6144   -3.6883 H   0  0  0  0  0  0  0  0  0  0  0  0
    3.0900   -0.0966   -0.9521 H   0  0  0  0  0  0  0  0  0  0  0  0
  1  2  1  0
  2  3  2  0
  3  4  1  0
  4  5  2  0
  5  6  1  0
  6  7  1  0
  7  8  1  0
  8  9  2  0
  8 10  1  0
 10 11  1  0
 11 12  2  0
 12 13  1  0
 12 14  1  0
 14 15  2  0
 15 16  1  0
 16 17  1  0
 16 18  2  0
 18 19  1  0
 19 20  2  0
 20 21  1  0
 21 22  1  0
 22 23  2  0
  6 24  2  0
 24  2  1  0
 22 11  1  0
 21 15  1  0
  1 25  1  0
  1 26  1  0
  1 27  1  0
  3 28  1  0
  4 29  1  0
  5 30  1  0
  7 31  1  0
  7 32  1  0
 10 33  1  0
 13 34  1  0
 13 35  1  0
 13 36  1  0
 17 37  1  0
 17 38  1  0
 17 39  1  0
 18 40  1  0
 19 41  1  0
 20 42  1  0
 24 43  1  0
M  END
$$$$
