
     RDKit          3D

 37 38  0  0  0  0  0  0  0  0999 V2000
    7.4915    0.2694   -0.0709 C   0  0  0  0  0  0  0  0  0  0  0  0
    6.5681    0.0494   -1.1303 O   0  0  0  0  0  0  0  0  0  0  0  0
    5.3041   -0.4323   -0.6708 C   0  0  0  0  0  0  0  0  0  0  0  0
    4.4152    0.7062   -0.1610 C   0  0  0  0  0  0  0  0  0  0  0  0
    3.0661    0.2776    0.1420 N   0  0  0  0  0  0  0  0  0  0  0  0
    2.7539   -0.4344    1.2884 C   0  0  0  0  0  0  0  0  0  0  0  0
    3.6168   -0.7593    2.1013 O   0  0  0  0  0  0  0  0  0  0  0  0
    1.3452   -0.7493    1.4138 C   0  0  0  0  0  0  0  0  0  0  0  0
    0.3952   -0.4809    0.5365 N   0  0  0  0  0  0  0  0  0  0  0  0
   -0.7250   -0.9505    1.1771 C   0  0  0  0  0  0  0  0  0  0  0  0
   -2.0679   -0.9046    0.5744 C   0  0  0  0  0  0  0  0  0  0  0  0
   -2.7534    0.7345    0.6845 S   0  0  0  0  0  6  0  0  0  0  0  0
   -2.0410    1.6223   -0.2163 O   0  0  0  0  0  0  0  0  0  0  0  0
   -2.9519    1.0900    2.0770 O   0  0  0  0  0  0  0  0  0  0  0  0
   -4.3814    0.5096   -0.0147 C   0  0  0  0  0  0  0  0  0  0  0  0
   -5.4508    0.1754    0.8226 C   0  0  0  0  0  0  0  0  0  0  0  0
   -6.7246    0.0106    0.2745 C   0  0  0  0  0  0  0  0  0  0  0  0
   -6.9206    0.1906   -1.0957 C   0  0  0  0  0  0  0  0  0  0  0  0
   -8.4911   -0.0150   -1.7666 Cl  0  0  0  0  0  0  0  0  0  0  0  0
   -5.8543    0.5406   -1.9257 C   0  0  0  0  0  0  0  0  0  0  0  0
   -4.5774    0.7072   -1.3854 C   0  0  0  0  0  0  0  0  0  0  0  0
   -0.4911   -1.5442    2.3557 N   0  0  0  0  0  0  0  0  0  0  0  0
    0.8895   -1.3950    2.5249 O   0  0  0  0  0  0  0  0  0  0  0  0
    8.4399    0.5944   -0.5074 H   0  0  0  0  0  0  0  0  0  0  0  0
    7.1360    1.0543    0.6019 H   0  0  0  0  0  0  0  0  0  0  0  0
    7.6658   -0.6563    0.4860 H   0  0  0  0  0  0  0  0  0  0  0  0
    5.4405   -1.2160    0.0836 H   0  0  0  0  0  0  0  0  0  0  0  0
    4.8164   -0.9060   -1.5305 H   0  0  0  0  0  0  0  0  0  0  0  0
    4.8469    1.1558    0.7394 H   0  0  0  0  0  0  0  0  0  0  0  0
    4.3499    1.4986   -0.9145 H   0  0  0  0  0  0  0  0  0  0  0  0
    2.3047    0.5215   -0.4851 H   0  0  0  0  0  0  0  0  0  0  0  0
   -2.0220   -1.1767   -0.4845 H   0  0  0  0  0  0  0  0  0  0  0  0
   -2.7544   -1.5865    1.0862 H   0  0  0  0  0  0  0  0  0  0  0  0
   -5.3085    0.0530    1.8949 H   0  0  0  0  0  0  0  0  0  0  0  0
   -7.5609   -0.2480    0.9198 H   0  0  0  0  0  0  0  0  0  0  0  0
   -6.0147    0.6941   -2.9903 H   0  0  0  0  0  0  0  0  0  0  0  0
   -3.7545    0.9998   -2.0348 H   0  0  0  0  0  0  0  0  0  0  0  0
  1  2  1  0
  2  3  1  0
  3  4  1  0
  4  5  1  0
  5  6  1  0
  6  7  2  0
  6  8  1  0
  8  9  2  0
  9 10  1  0
 10 11  1  0
 11 12  1  0
 12 13  2  0
 12 14  2  0
 12 15  1  0
 15 16  2  0
 16 17  1  0
 17 18  2  0
 18 19  1  0
 18 20  1  0
 20 21  2  0
 10 22  2  0
 22 23  1  0
 23  8  1  0
 21 15  1  0
  1 24  1  0
  1 25  1  0
  1 26  1  0
  3 27  1  0
  3 28  1  0
  4 29  1  0
  4 30  1  0
  5 31  1  0
 11 32  1  0
 11 33  1  0
 16 34  1  0
 17 35  1  0
 20 36  1  0
 21 37  1  0
M  END
$$$$
