
     RDKit          3D

 55 59  0  0  0  0  0  0  0  0999 V2000
    5.5273   -2.4108   -0.4588 O   0  0  0  0  0  0  0  0  0  0  0  0
    5.4746   -1.2254   -0.1179 C   0  0  0  0  0  0  0  0  0  0  0  0
    6.6963   -0.4529    0.0313 C   0  0  0  0  0  0  0  0  0  0  0  0
    7.9913   -0.8878    0.2629 C   0  0  0  0  0  0  0  0  0  0  0  0
    8.8237    0.2559    0.2434 C   0  0  0  0  0  0  0  0  0  0  0  0
    7.9975    1.3206   -0.0234 C   0  0  0  0  0  0  0  0  0  0  0  0
    6.7147    0.9030   -0.1683 O   0  0  0  0  0  0  0  0  0  0  0  0
    4.2281   -0.6359    0.1163 N   0  0  0  0  0  0  0  0  0  0  0  0
    3.9652    0.6435    0.7844 C   0  0  0  0  0  0  0  0  0  0  0  0
    2.8962    1.4390    0.0274 C   0  0  0  0  0  0  0  0  0  0  0  0
    1.6675    0.6728   -0.2100 N   0  0  0  0  0  0  0  0  0  0  0  0
    0.5625    1.3670   -0.6701 C   0  0  0  0  0  0  0  0  0  0  0  0
    0.6208    2.5467   -1.0204 O   0  0  0  0  0  0  0  0  0  0  0  0
   -0.7237    0.6402   -0.8046 C   0  0  0  0  0  0  0  0  0  0  0  0
   -1.2363    0.5643   -2.0406 C   0  0  0  0  0  0  0  0  0  0  0  0
   -2.5099   -0.1080   -2.2548 C   0  0  0  0  0  0  0  0  0  0  0  0
   -3.0570   -0.2174   -3.5354 C   0  0  0  0  0  0  0  0  0  0  0  0
   -4.2726   -0.8692   -3.7065 C   0  0  0  0  0  0  0  0  0  0  0  0
   -4.8942   -1.3909   -2.5867 C   0  0  0  0  0  0  0  0  0  0  0  0
   -4.3884   -1.3016   -1.3377 N   0  0  0  0  0  0  0  0  0  0  0  0
   -3.2098   -0.6577   -1.1768 C   0  0  0  0  0  0  0  0  0  0  0  0
   -2.6623   -0.5430    0.1265 N   0  0  0  0  0  0  0  0  0  0  0  0
   -3.4338   -1.0820    1.2474 C   0  0  0  0  0  0  0  0  0  0  0  0
   -4.5721   -0.1922    1.6900 C   0  0  0  0  0  0  0  0  0  0  0  0
   -4.3877    1.1766    1.9422 C   0  0  0  0  0  0  0  0  0  0  0  0
   -5.4560    1.9714    2.3683 C   0  0  0  0  0  0  0  0  0  0  0  0
   -6.7163    1.4083    2.5623 C   0  0  0  0  0  0  0  0  0  0  0  0
   -6.9067    0.0471    2.3372 C   0  0  0  0  0  0  0  0  0  0  0  0
   -5.8389   -0.7391    1.9101 C   0  0  0  0  0  0  0  0  0  0  0  0
   -6.0475   -2.0510    1.7242 F   0  0  0  0  0  0  0  0  0  0  0  0
   -1.4505    0.0856    0.3696 C   0  0  0  0  0  0  0  0  0  0  0  0
   -0.9639    0.1949    1.4941 O   0  0  0  0  0  0  0  0  0  0  0  0
    1.7063   -0.7550    0.1374 C   0  0  0  0  0  0  0  0  0  0  0  0
    3.0409   -1.4179   -0.2404 C   0  0  0  0  0  0  0  0  0  0  0  0
    8.2850   -1.9193    0.4122 H   0  0  0  0  0  0  0  0  0  0  0  0
    9.8950    0.2975    0.3843 H   0  0  0  0  0  0  0  0  0  0  0  0
    8.1608    2.3823   -0.1464 H   0  0  0  0  0  0  0  0  0  0  0  0
    3.6040    0.3969    1.7908 H   0  0  0  0  0  0  0  0  0  0  0  0
    4.8548    1.2502    0.9293 H   0  0  0  0  0  0  0  0  0  0  0  0
    2.6440    2.3516    0.5798 H   0  0  0  0  0  0  0  0  0  0  0  0
    3.2792    1.7396   -0.9551 H   0  0  0  0  0  0  0  0  0  0  0  0
   -0.7235    0.9995   -2.8926 H   0  0  0  0  0  0  0  0  0  0  0  0
   -2.5484    0.2016   -4.4005 H   0  0  0  0  0  0  0  0  0  0  0  0
   -4.7247   -0.9673   -4.6887 H   0  0  0  0  0  0  0  0  0  0  0  0
   -5.8455   -1.9104   -2.6641 H   0  0  0  0  0  0  0  0  0  0  0  0
   -3.7865   -2.0851    0.9762 H   0  0  0  0  0  0  0  0  0  0  0  0
   -2.7751   -1.2301    2.1131 H   0  0  0  0  0  0  0  0  0  0  0  0
   -3.4115    1.6367    1.8112 H   0  0  0  0  0  0  0  0  0  0  0  0
   -5.3009    3.0315    2.5524 H   0  0  0  0  0  0  0  0  0  0  0  0
   -7.5457    2.0273    2.8959 H   0  0  0  0  0  0  0  0  0  0  0  0
   -7.8787   -0.4102    2.4935 H   0  0  0  0  0  0  0  0  0  0  0  0
    0.8873   -1.2998   -0.3395 H   0  0  0  0  0  0  0  0  0  0  0  0
    1.5595   -0.8164    1.2222 H   0  0  0  0  0  0  0  0  0  0  0  0
    3.0784   -1.5685   -1.3263 H   0  0  0  0  0  0  0  0  0  0  0  0
    3.1069   -2.4065    0.2295 H   0  0  0  0  0  0  0  0  0  0  0  0
  1  2  2  0
  2  3  1  0
  3  4  2  0
  4  5  1  0
  5  6  2  0
  6  7  1  0
  2  8  1  0
  8  9  1  0
  9 10  1  0
 10 11  1  0
 11 12  1  0
 12 13  2  0
 12 14  1  0
 14 15  2  0
 15 16  1  0
 16 17  2  0
 17 18  1  0
 18 19  2  0
 19 20  1  0
 20 21  2  0
 21 22  1  0
 22 23  1  0
 23 24  1  0
 24 25  2  0
 25 26  1  0
 26 27  2  0
 27 28  1  0
 28 29  2  0
 29 30  1  0
 22 31  1  0
 31 32  2  0
 11 33  1  0
 33 34  1  0
  7  3  1  0
 34  8  1  0
 31 14  1  0
 21 16  1  0
 29 24  1  0
  4 35  1  0
  5 36  1  0
  6 37  1  0
  9 38  1  0
  9 39  1  0
 10 40  1  0
 10 41  1  0
 15 42  1  0
 17 43  1  0
 18 44  1  0
 19 45  1  0
 23 46  1  0
 23 47  1  0
 25 48  1  0
 26 49  1  0
 27 50  1  0
 28 51  1  0
 33 52  1  0
 33 53  1  0
 34 54  1  0
 34 55  1  0
M  END
$$$$
