
     RDKit          3D

 39 41  0  0  0  0  0  0  0  0999 V2000
    4.0181   -1.0850    1.4757 C   0  0  0  0  0  0  0  0  0  0  0  0
    3.1269    0.1593    1.4139 C   0  0  0  0  0  0  0  0  0  0  0  0
    1.6491   -0.1356    1.6534 C   0  0  0  0  0  0  0  0  0  0  0  0
    1.0575   -1.0859    0.6859 N   0  0  0  0  0  0  0  0  0  0  0  0
   -0.0566   -1.9070    1.2314 C   0  0  0  0  0  0  0  0  0  0  0  0
   -1.3438   -1.0976    1.4827 C   0  0  0  0  0  0  0  0  0  0  0  0
   -2.1044   -1.3952    2.4031 O   0  0  0  0  0  0  0  0  0  0  0  0
   -1.5192   -0.0549    0.5896 N   0  0  0  0  0  0  0  0  0  0  0  0
   -2.5622    0.8891    0.5345 C   0  0  0  0  0  0  0  0  0  0  0  0
   -3.7270    0.8057    1.3006 C   0  0  0  0  0  0  0  0  0  0  0  0
   -4.7062    1.8036    1.2164 C   0  0  0  0  0  0  0  0  0  0  0  0
   -4.5241    2.8908    0.3611 C   0  0  0  0  0  0  0  0  0  0  0  0
   -3.3810    2.9516   -0.4283 C   0  0  0  0  0  0  0  0  0  0  0  0
   -3.1994    3.9931   -1.2529 F   0  0  0  0  0  0  0  0  0  0  0  0
   -2.4063    1.9616   -0.3537 C   0  0  0  0  0  0  0  0  0  0  0  0
    1.3163   -0.9417   -0.6840 C   0  0  0  0  0  0  0  0  0  0  0  0
    0.6298   -1.7143   -1.6415 C   0  0  0  0  0  0  0  0  0  0  0  0
    0.8400   -1.5699   -3.0178 C   0  0  0  0  0  0  0  0  0  0  0  0
    1.7532   -0.6379   -3.4924 C   0  0  0  0  0  0  0  0  0  0  0  0
    2.4659    0.1324   -2.5836 C   0  0  0  0  0  0  0  0  0  0  0  0
    2.2706   -0.0212   -1.1992 C   0  0  0  0  0  0  0  0  0  0  0  0
    3.3142    1.0253   -0.1788 S   0  0  0  0  0  0  0  0  0  0  0  0
    5.0770   -0.8018    1.4302 H   0  0  0  0  0  0  0  0  0  0  0  0
    3.8674   -1.6219    2.4215 H   0  0  0  0  0  0  0  0  0  0  0  0
    3.8219   -1.7927    0.6567 H   0  0  0  0  0  0  0  0  0  0  0  0
    3.4658    0.8555    2.1916 H   0  0  0  0  0  0  0  0  0  0  0  0
    1.5500   -0.5456    2.6673 H   0  0  0  0  0  0  0  0  0  0  0  0
    1.0686    0.7961    1.6551 H   0  0  0  0  0  0  0  0  0  0  0  0
    0.2629   -2.3078    2.2062 H   0  0  0  0  0  0  0  0  0  0  0  0
   -0.2985   -2.7804    0.6216 H   0  0  0  0  0  0  0  0  0  0  0  0
   -0.7171    0.1243   -0.0104 H   0  0  0  0  0  0  0  0  0  0  0  0
   -3.9084   -0.0321    1.9707 H   0  0  0  0  0  0  0  0  0  0  0  0
   -5.6053    1.7351    1.8285 H   0  0  0  0  0  0  0  0  0  0  0  0
   -5.2651    3.6788    0.2967 H   0  0  0  0  0  0  0  0  0  0  0  0
   -1.5299    2.0509   -0.9871 H   0  0  0  0  0  0  0  0  0  0  0  0
   -0.1010   -2.4633   -1.3532 H   0  0  0  0  0  0  0  0  0  0  0  0
    0.2854   -2.1961   -3.7137 H   0  0  0  0  0  0  0  0  0  0  0  0
    1.9239   -0.5157   -4.5629 H   0  0  0  0  0  0  0  0  0  0  0  0
    3.1911    0.8504   -2.9563 H   0  0  0  0  0  0  0  0  0  0  0  0
  1  2  1  0
  2  3  1  0
  3  4  1  0
  4  5  1  0
  5  6  1  0
  6  7  2  0
  6  8  1  0
  8  9  1  0
  9 10  2  0
 10 11  1  0
 11 12  2  0
 12 13  1  0
 13 14  1  0
 13 15  2  0
  4 16  1  0
 16 17  2  0
 17 18  1  0
 18 19  2  0
 19 20  1  0
 20 21  2  0
 21 22  1  0
 22  2  1  0
 15  9  1  0
 21 16  1  0
  1 23  1  0
  1 24  1  0
  1 25  1  0
  2 26  1  0
  3 27  1  0
  3 28  1  0
  5 29  1  0
  5 30  1  0
  8 31  1  0
 10 32  1  0
 11 33  1  0
 12 34  1  0
 15 35  1  0
 17 36  1  0
 18 37  1  0
 19 38  1  0
 20 39  1  0
M  END
$$$$
