
     RDKit          3D

 45 47  0  0  0  0  0  0  0  0999 V2000
    6.7749   -1.4700    3.6472 C   0  0  0  0  0  0  0  0  0  0  0  0
    5.7066   -1.5550    2.7136 O   0  0  0  0  0  0  0  0  0  0  0  0
    5.2150   -0.2639    2.3561 C   0  0  0  0  0  0  0  0  0  0  0  0
    4.0435   -0.4427    1.4005 C   0  0  0  0  0  0  0  0  0  0  0  0
    3.5238    0.9005    0.9060 C   0  0  0  0  0  0  0  0  0  0  0  0
    2.3856    0.7393    0.0305 N   0  0  0  0  0  0  0  0  0  0  0  0
    1.0844    0.6543    0.5080 C   0  0  0  0  0  0  0  0  0  0  0  0
    0.7999    0.8069    1.6914 O   0  0  0  0  0  0  0  0  0  0  0  0
    0.0485    0.3545   -0.5529 C   0  0  0  0  0  0  0  0  0  0  0  0
   -1.2306    0.2672   -0.1659 N   0  0  0  0  0  0  0  0  0  0  0  0
   -2.1376    0.0082   -1.1189 C   0  0  0  0  0  0  0  0  0  0  0  0
   -3.5089   -0.1206   -0.7660 N   0  0  0  0  0  0  0  0  0  0  0  0
   -4.1525    0.2035    0.4508 C   0  0  0  0  0  0  0  0  0  0  0  0
   -3.6715    1.1698    1.3411 C   0  0  0  0  0  0  0  0  0  0  0  0
   -4.3828    1.5048    2.4983 C   0  0  0  0  0  0  0  0  0  0  0  0
   -5.6056    0.8981    2.7689 C   0  0  0  0  0  0  0  0  0  0  0  0
   -6.1220   -0.0361    1.8769 C   0  0  0  0  0  0  0  0  0  0  0  0
   -5.4063   -0.3697    0.7229 C   0  0  0  0  0  0  0  0  0  0  0  0
   -1.7710   -0.1459   -2.4739 C   0  0  0  0  0  0  0  0  0  0  0  0
   -2.6751   -0.3796   -3.5431 C   0  0  0  0  0  0  0  0  0  0  0  0
   -2.2183   -0.5277   -4.8510 C   0  0  0  0  0  0  0  0  0  0  0  0
   -0.8585   -0.4406   -5.1106 C   0  0  0  0  0  0  0  0  0  0  0  0
    0.0327   -0.1979   -4.0624 C   0  0  0  0  0  0  0  0  0  0  0  0
   -0.3988   -0.0438   -2.7505 C   0  0  0  0  0  0  0  0  0  0  0  0
    0.5145    0.1986   -1.8102 N   0  0  0  0  0  0  0  0  0  0  0  0
    7.1128   -2.4840    3.8772 H   0  0  0  0  0  0  0  0  0  0  0  0
    6.4370   -0.9957    4.5736 H   0  0  0  0  0  0  0  0  0  0  0  0
    7.6128   -0.9103    3.2206 H   0  0  0  0  0  0  0  0  0  0  0  0
    4.8899    0.2697    3.2568 H   0  0  0  0  0  0  0  0  0  0  0  0
    6.0172    0.3061    1.8734 H   0  0  0  0  0  0  0  0  0  0  0  0
    3.2463   -1.0055    1.9026 H   0  0  0  0  0  0  0  0  0  0  0  0
    4.3490   -1.0662    0.5504 H   0  0  0  0  0  0  0  0  0  0  0  0
    3.2373    1.5356    1.7515 H   0  0  0  0  0  0  0  0  0  0  0  0
    4.2968    1.4237    0.3335 H   0  0  0  0  0  0  0  0  0  0  0  0
    2.5223    0.5241   -0.9534 H   0  0  0  0  0  0  0  0  0  0  0  0
   -3.8656   -0.9937   -1.1398 H   0  0  0  0  0  0  0  0  0  0  0  0
   -2.7309    1.6804    1.1543 H   0  0  0  0  0  0  0  0  0  0  0  0
   -3.9757    2.2444    3.1829 H   0  0  0  0  0  0  0  0  0  0  0  0
   -6.1563    1.1601    3.6681 H   0  0  0  0  0  0  0  0  0  0  0  0
   -7.0831   -0.5028    2.0746 H   0  0  0  0  0  0  0  0  0  0  0  0
   -5.8416   -1.0907    0.0361 H   0  0  0  0  0  0  0  0  0  0  0  0
   -3.7466   -0.4289   -3.3613 H   0  0  0  0  0  0  0  0  0  0  0  0
   -2.9217   -0.7032   -5.6613 H   0  0  0  0  0  0  0  0  0  0  0  0
   -0.4858   -0.5523   -6.1259 H   0  0  0  0  0  0  0  0  0  0  0  0
    1.0960   -0.1231   -4.2815 H   0  0  0  0  0  0  0  0  0  0  0  0
  1  2  1  0
  2  3  1  0
  3  4  1  0
  4  5  1  0
  5  6  1  0
  6  7  1  0
  7  8  2  0
  7  9  1  0
  9 10  2  0
 10 11  1  0
 11 12  1  0
 12 13  1  0
 13 14  2  0
 14 15  1  0
 15 16  2  0
 16 17  1  0
 17 18  2  0
 11 19  2  0
 19 20  1  0
 20 21  2  0
 21 22  1  0
 22 23  2  0
 23 24  1  0
 24 25  2  0
 25  9  1  0
 18 13  1  0
 24 19  1  0
  1 26  1  0
  1 27  1  0
  1 28  1  0
  3 29  1  0
  3 30  1  0
  4 31  1  0
  4 32  1  0
  5 33  1  0
  5 34  1  0
  6 35  1  0
 12 36  1  0
 14 37  1  0
 15 38  1  0
 16 39  1  0
 17 40  1  0
 18 41  1  0
 20 42  1  0
 21 43  1  0
 22 44  1  0
 23 45  1  0
M  END
$$$$
