
     RDKit          3D

 38 39  0  0  0  0  0  0  0  0999 V2000
    6.6267    0.4551   -0.0526 C   0  0  0  0  0  0  0  0  0  0  0  0
    5.9326   -0.6233    0.7600 C   0  0  0  0  0  0  0  0  0  0  0  0
    4.5141   -0.4890    0.7066 O   0  0  0  0  0  0  0  0  0  0  0  0
    3.9387   -0.9861   -0.4973 C   0  0  0  0  0  0  0  0  0  0  0  0
    2.4183   -0.9112   -0.4053 C   0  0  0  0  0  0  0  0  0  0  0  0
    1.9285    0.5117   -0.1447 C   0  0  0  0  0  0  0  0  0  0  0  0
    0.4885    0.6236   -0.3099 N   0  0  0  0  0  0  0  0  0  0  0  0
   -0.3814    0.2420    0.6836 C   0  0  0  0  0  0  0  0  0  0  0  0
   -0.0077   -0.1909    1.7688 O   0  0  0  0  0  0  0  0  0  0  0  0
   -1.8306    0.3754    0.3567 C   0  0  0  0  0  0  0  0  0  0  0  0
   -2.6985   -0.2992    1.1241 C   0  0  0  0  0  0  0  0  0  0  0  0
   -4.1168   -0.1721    0.8233 C   0  0  0  0  0  0  0  0  0  0  0  0
   -5.0646   -0.9497    1.4976 C   0  0  0  0  0  0  0  0  0  0  0  0
   -6.4248   -0.7996    1.2174 C   0  0  0  0  0  0  0  0  0  0  0  0
   -6.8434    0.1326    0.2690 C   0  0  0  0  0  0  0  0  0  0  0  0
   -5.9020    0.9135   -0.4016 C   0  0  0  0  0  0  0  0  0  0  0  0
   -4.5422    0.7560   -0.1307 C   0  0  0  0  0  0  0  0  0  0  0  0
   -3.6893    1.5748   -0.8167 O   0  0  0  0  0  0  0  0  0  0  0  0
   -2.2887    1.2550   -0.7651 C   0  0  0  0  0  0  0  0  0  0  0  0
    7.7093    0.4145    0.0989 H   0  0  0  0  0  0  0  0  0  0  0  0
    6.4280    0.3376   -1.1220 H   0  0  0  0  0  0  0  0  0  0  0  0
    6.2653    1.4478    0.2350 H   0  0  0  0  0  0  0  0  0  0  0  0
    6.2218   -0.5149    1.8105 H   0  0  0  0  0  0  0  0  0  0  0  0
    6.2392   -1.6250    0.4387 H   0  0  0  0  0  0  0  0  0  0  0  0
    4.2396   -2.0290   -0.6485 H   0  0  0  0  0  0  0  0  0  0  0  0
    4.2858   -0.3939   -1.3504 H   0  0  0  0  0  0  0  0  0  0  0  0
    2.0689   -1.5620    0.4055 H   0  0  0  0  0  0  0  0  0  0  0  0
    1.9838   -1.2960   -1.3358 H   0  0  0  0  0  0  0  0  0  0  0  0
    2.1947    0.8353    0.8676 H   0  0  0  0  0  0  0  0  0  0  0  0
    2.3794    1.2110   -0.8569 H   0  0  0  0  0  0  0  0  0  0  0  0
    0.1518    0.8584   -1.2308 H   0  0  0  0  0  0  0  0  0  0  0  0
   -2.3842   -0.9322    1.9478 H   0  0  0  0  0  0  0  0  0  0  0  0
   -4.7538   -1.6739    2.2469 H   0  0  0  0  0  0  0  0  0  0  0  0
   -7.1573   -1.4059    1.7443 H   0  0  0  0  0  0  0  0  0  0  0  0
   -7.9020    0.2550    0.0552 H   0  0  0  0  0  0  0  0  0  0  0  0
   -6.2270    1.6460   -1.1352 H   0  0  0  0  0  0  0  0  0  0  0  0
   -1.7661    2.2169   -0.7144 H   0  0  0  0  0  0  0  0  0  0  0  0
   -2.0347    0.7916   -1.7256 H   0  0  0  0  0  0  0  0  0  0  0  0
  1  2  1  0
  2  3  1  0
  3  4  1  0
  4  5  1  0
  5  6  1  0
  6  7  1  0
  7  8  1  0
  8  9  2  0
  8 10  1  0
 10 11  2  0
 11 12  1  0
 12 13  2  0
 13 14  1  0
 14 15  2  0
 15 16  1  0
 16 17  2  0
 17 18  1  0
 18 19  1  0
 19 10  1  0
 17 12  1  0
  1 20  1  0
  1 21  1  0
  1 22  1  0
  2 23  1  0
  2 24  1  0
  4 25  1  0
  4 26  1  0
  5 27  1  0
  5 28  1  0
  6 29  1  0
  6 30  1  0
  7 31  1  0
 11 32  1  0
 13 33  1  0
 14 34  1  0
 15 35  1  0
 16 36  1  0
 19 37  1  0
 19 38  1  0
M  END
$$$$
