
     RDKit          3D

 50 54  0  0  0  0  0  0  0  0999 V2000
    2.7235   -1.0764   -2.9764 C   0  0  0  0  0  0  0  0  0  0  0  0
    2.4035   -1.4038   -1.5151 C   0  0  0  0  0  0  0  0  0  0  0  0
    0.9704   -1.4124   -1.2810 N   0  0  0  0  0  0  0  0  0  0  0  0
    0.1670   -2.4608   -1.6430 C   0  0  0  0  0  0  0  0  0  0  0  0
    0.6077   -3.4921   -2.1429 O   0  0  0  0  0  0  0  0  0  0  0  0
   -1.2912   -2.2752   -1.3912 C   0  0  0  0  0  0  0  0  0  0  0  0
   -2.1141   -3.3029   -1.6587 C   0  0  0  0  0  0  0  0  0  0  0  0
   -3.4762   -3.3056   -1.4885 N   0  0  0  0  0  0  0  0  0  0  0  0
   -3.9741   -2.2177   -1.0117 C   0  0  0  0  0  0  0  0  0  0  0  0
   -5.6847   -1.9842   -0.7061 S   0  0  0  0  0  0  0  0  0  0  0  0
   -5.3843   -0.3695   -0.1414 C   0  0  0  0  0  0  0  0  0  0  0  0
   -4.0781   -0.0550   -0.1803 C   0  0  0  0  0  0  0  0  0  0  0  0
   -3.2735   -1.0772   -0.6714 N   0  0  0  0  0  0  0  0  0  0  0  0
   -1.9067   -1.0232   -0.8706 C   0  0  0  0  0  0  0  0  0  0  0  0
   -1.2032   -0.0334   -0.6646 O   0  0  0  0  0  0  0  0  0  0  0  0
   -3.5504    1.2739    0.2721 C   0  0  0  0  0  0  0  0  0  0  0  0
   -4.6065    2.0996    1.0239 C   0  0  0  0  0  0  0  0  0  0  0  0
   -5.9853    2.0036    0.3695 C   0  0  0  0  0  0  0  0  0  0  0  0
   -6.4739    0.5519    0.2974 C   0  0  0  0  0  0  0  0  0  0  0  0
    3.0763   -0.4412   -0.5528 C   0  0  0  0  0  0  0  0  0  0  0  0
    2.8770    0.9482   -0.6364 C   0  0  0  0  0  0  0  0  0  0  0  0
    3.5018    1.8154    0.2638 C   0  0  0  0  0  0  0  0  0  0  0  0
    4.3304    1.3053    1.2589 C   0  0  0  0  0  0  0  0  0  0  0  0
    4.5098   -0.0752    1.3772 C   0  0  0  0  0  0  0  0  0  0  0  0
    3.8973   -0.9415    0.4714 C   0  0  0  0  0  0  0  0  0  0  0  0
    5.2803   -0.6519    2.3549 O   0  0  0  0  0  0  0  0  0  0  0  0
    5.5693    0.2771    3.4058 C   0  0  0  0  0  0  0  0  0  0  0  0
    5.9973    1.6184    2.8337 C   0  0  0  0  0  0  0  0  0  0  0  0
    4.9279    2.2163    2.0921 O   0  0  0  0  0  0  0  0  0  0  0  0
    2.3091   -1.8380   -3.6461 H   0  0  0  0  0  0  0  0  0  0  0  0
    3.8056   -1.0362   -3.1422 H   0  0  0  0  0  0  0  0  0  0  0  0
    2.2976   -0.1148   -3.2835 H   0  0  0  0  0  0  0  0  0  0  0  0
    2.7735   -2.4193   -1.3231 H   0  0  0  0  0  0  0  0  0  0  0  0
    0.5378   -0.5632   -0.9193 H   0  0  0  0  0  0  0  0  0  0  0  0
   -1.7121   -4.2392   -2.0461 H   0  0  0  0  0  0  0  0  0  0  0  0
   -2.6931    1.1442    0.9419 H   0  0  0  0  0  0  0  0  0  0  0  0
   -3.2102    1.8384   -0.6045 H   0  0  0  0  0  0  0  0  0  0  0  0
   -4.6761    1.7430    2.0598 H   0  0  0  0  0  0  0  0  0  0  0  0
   -4.2859    3.1466    1.0716 H   0  0  0  0  0  0  0  0  0  0  0  0
   -6.7090    2.6071    0.9290 H   0  0  0  0  0  0  0  0  0  0  0  0
   -5.9345    2.4245   -0.6430 H   0  0  0  0  0  0  0  0  0  0  0  0
   -6.8314    0.2366    1.2853 H   0  0  0  0  0  0  0  0  0  0  0  0
   -7.3266    0.5009   -0.3896 H   0  0  0  0  0  0  0  0  0  0  0  0
    2.2307    1.3686   -1.4043 H   0  0  0  0  0  0  0  0  0  0  0  0
    3.3480    2.8879    0.1829 H   0  0  0  0  0  0  0  0  0  0  0  0
    4.0558   -2.0124    0.5778 H   0  0  0  0  0  0  0  0  0  0  0  0
    6.3738   -0.1494    4.0132 H   0  0  0  0  0  0  0  0  0  0  0  0
    4.6786    0.3760    4.0386 H   0  0  0  0  0  0  0  0  0  0  0  0
    6.8658    1.5139    2.1715 H   0  0  0  0  0  0  0  0  0  0  0  0
    6.2653    2.3062    3.6418 H   0  0  0  0  0  0  0  0  0  0  0  0
  1  2  1  0
  2  3  1  0
  3  4  1  0
  4  5  2  0
  4  6  1  0
  6  7  2  0
  7  8  1  0
  8  9  2  0
  9 10  1  0
 10 11  1  0
 11 12  2  0
 12 13  1  0
 13 14  1  0
 14 15  2  0
 12 16  1  0
 16 17  1  0
 17 18  1  0
 18 19  1  0
  2 20  1  0
 20 21  2  0
 21 22  1  0
 22 23  2  0
 23 24  1  0
 24 25  2  0
 24 26  1  0
 26 27  1  0
 27 28  1  0
 28 29  1  0
 14  6  1  0
 25 20  1  0
 13  9  1  0
 29 23  1  0
 19 11  1  0
  1 30  1  0
  1 31  1  0
  1 32  1  0
  2 33  1  0
  3 34  1  0
  7 35  1  0
 16 36  1  0
 16 37  1  0
 17 38  1  0
 17 39  1  0
 18 40  1  0
 18 41  1  0
 19 42  1  0
 19 43  1  0
 21 44  1  0
 22 45  1  0
 25 46  1  0
 27 47  1  0
 27 48  1  0
 28 49  1  0
 28 50  1  0
M  END
$$$$
