
     RDKit          3D

 52 55  0  0  0  0  0  0  0  0999 V2000
   -8.5357    0.1553   -2.0506 C   0  0  0  0  0  0  0  0  0  0  0  0
   -7.6089    0.4714   -0.9432 C   0  0  0  0  0  0  0  0  0  0  0  0
   -7.6988    0.3770    0.4317 C   0  0  0  0  0  0  0  0  0  0  0  0
   -6.4655    0.8440    0.9462 C   0  0  0  0  0  0  0  0  0  0  0  0
   -5.6995    1.1975   -0.1481 C   0  0  0  0  0  0  0  0  0  0  0  0
   -4.3283    1.7421   -0.2943 C   0  0  0  0  0  0  0  0  0  0  0  0
   -3.4000    0.6309   -0.3089 N   0  0  0  0  0  0  0  0  0  0  0  0
   -2.6664    0.2905    0.8042 C   0  0  0  0  0  0  0  0  0  0  0  0
   -2.6778    0.9570    1.8349 O   0  0  0  0  0  0  0  0  0  0  0  0
   -1.8538   -0.9944    0.6486 C   0  0  0  0  0  0  0  0  0  0  0  0
   -1.2342   -1.4477    1.9788 C   0  0  0  0  0  0  0  0  0  0  0  0
   -0.0435   -0.5888    2.4321 C   0  0  0  0  0  0  0  0  0  0  0  0
    0.6000    0.1976    1.2942 C   0  0  0  0  0  0  0  0  0  0  0  0
    0.5525   -0.5739    0.0577 N   0  0  0  0  0  0  0  0  0  0  0  0
    1.6301   -0.7520   -0.8221 C   0  0  0  0  0  0  0  0  0  0  0  0
    1.4292   -1.0408   -2.0060 O   0  0  0  0  0  0  0  0  0  0  0  0
    3.0145   -0.6188   -0.3214 C   0  0  0  0  0  0  0  0  0  0  0  0
    4.1479   -0.3034   -1.1159 C   0  0  0  0  0  0  0  0  0  0  0  0
    5.2410   -0.3033   -0.2720 C   0  0  0  0  0  0  0  0  0  0  0  0
    6.6497   -0.0334   -0.5327 C   0  0  0  0  0  0  0  0  0  0  0  0
    7.6012    0.1302    0.4683 C   0  0  0  0  0  0  0  0  0  0  0  0
    8.9223    0.3808    0.1033 C   0  0  0  0  0  0  0  0  0  0  0  0
    9.2543    0.4654   -1.2446 C   0  0  0  0  0  0  0  0  0  0  0  0
    8.2442    0.2982   -2.1752 C   0  0  0  0  0  0  0  0  0  0  0  0
    6.9563    0.0554   -1.8489 N   0  0  0  0  0  0  0  0  0  0  0  0
    4.7237   -0.6642    0.9398 N   0  0  0  0  0  0  0  0  0  0  0  0
    3.3964   -0.8675    0.9441 N   0  0  0  0  0  0  0  0  0  0  0  0
   -0.7856   -0.8666   -0.4503 C   0  0  0  0  0  0  0  0  0  0  0  0
   -6.3908    0.9633   -1.3026 O   0  0  0  0  0  0  0  0  0  0  0  0
   -8.0057   -0.3327   -2.8748 H   0  0  0  0  0  0  0  0  0  0  0  0
   -8.9979    1.0737   -2.4316 H   0  0  0  0  0  0  0  0  0  0  0  0
   -9.3309   -0.5184   -1.7169 H   0  0  0  0  0  0  0  0  0  0  0  0
   -8.5508    0.0182    0.9951 H   0  0  0  0  0  0  0  0  0  0  0  0
   -6.1602    0.9142    1.9838 H   0  0  0  0  0  0  0  0  0  0  0  0
   -4.0963    2.4379    0.5180 H   0  0  0  0  0  0  0  0  0  0  0  0
   -4.2198    2.2737   -1.2458 H   0  0  0  0  0  0  0  0  0  0  0  0
   -3.5158   -0.0406   -1.0570 H   0  0  0  0  0  0  0  0  0  0  0  0
   -2.5815   -1.7580    0.3386 H   0  0  0  0  0  0  0  0  0  0  0  0
   -0.8842   -2.4817    1.8562 H   0  0  0  0  0  0  0  0  0  0  0  0
   -1.9875   -1.4774    2.7758 H   0  0  0  0  0  0  0  0  0  0  0  0
    0.7021   -1.2488    2.8950 H   0  0  0  0  0  0  0  0  0  0  0  0
   -0.3589    0.1119    3.2141 H   0  0  0  0  0  0  0  0  0  0  0  0
    1.6007    0.5301    1.5697 H   0  0  0  0  0  0  0  0  0  0  0  0
    0.0398    1.1233    1.1080 H   0  0  0  0  0  0  0  0  0  0  0  0
    4.1578   -0.0883   -2.1766 H   0  0  0  0  0  0  0  0  0  0  0  0
    7.3457    0.0776    1.5173 H   0  0  0  0  0  0  0  0  0  0  0  0
    9.6868    0.5127    0.8617 H   0  0  0  0  0  0  0  0  0  0  0  0
   10.2734    0.6586   -1.5625 H   0  0  0  0  0  0  0  0  0  0  0  0
    8.4485    0.3540   -3.2422 H   0  0  0  0  0  0  0  0  0  0  0  0
    5.2222   -0.8019    1.8116 H   0  0  0  0  0  0  0  0  0  0  0  0
   -1.0323   -0.0904   -1.1853 H   0  0  0  0  0  0  0  0  0  0  0  0
   -0.7296   -1.8157   -0.9994 H   0  0  0  0  0  0  0  0  0  0  0  0
  1  2  1  0
  2  3  2  0
  3  4  1  0
  4  5  2  0
  5  6  1  0
  6  7  1  0
  7  8  1  0
  8  9  2  0
  8 10  1  0
 10 11  1  0
 11 12  1  0
 12 13  1  0
 13 14  1  0
 14 15  1  0
 15 16  2  0
 15 17  1  0
 17 18  1  0
 18 19  2  0
 19 20  1  0
 20 21  2  0
 21 22  1  0
 22 23  2  0
 23 24  1  0
 24 25  2  0
 19 26  1  0
 26 27  1  0
 14 28  1  0
  5 29  1  0
 29  2  1  0
 28 10  1  0
 27 17  2  0
 25 20  1  0
  1 30  1  0
  1 31  1  0
  1 32  1  0
  3 33  1  0
  4 34  1  0
  6 35  1  0
  6 36  1  0
  7 37  1  0
 10 38  1  0
 11 39  1  0
 11 40  1  0
 12 41  1  0
 12 42  1  0
 13 43  1  0
 13 44  1  0
 18 45  1  0
 21 46  1  0
 22 47  1  0
 23 48  1  0
 24 49  1  0
 26 50  1  0
 28 51  1  0
 28 52  1  0
M  END
$$$$
