
     RDKit          3D

 50 53  0  0  0  0  0  0  0  0999 V2000
   -1.9982    3.5006   -0.4082 C   0  0  0  0  0  0  0  0  0  0  0  0
   -1.4462    2.2047    0.1974 C   0  0  0  0  0  0  0  0  0  0  0  0
   -2.2754    1.7619    1.4183 C   0  0  0  0  0  0  0  0  0  0  0  0
   -3.6853    1.2727    1.1312 C   0  0  0  0  0  0  0  0  0  0  0  0
   -4.1363    1.1087    0.0051 O   0  0  0  0  0  0  0  0  0  0  0  0
   -4.3942    0.9985    2.2805 N   0  0  0  0  0  0  0  0  0  0  0  0
   -5.6858    0.3492    2.2327 C   0  0  0  0  0  0  0  0  0  0  0  0
   -5.4678   -1.1283    2.3343 C   0  0  0  0  0  0  0  0  0  0  0  0
   -5.2200   -2.0228    1.3108 C   0  0  0  0  0  0  0  0  0  0  0  0
   -5.0517   -3.3560    1.7831 C   0  0  0  0  0  0  0  0  0  0  0  0
   -5.1789   -3.4374    3.1517 C   0  0  0  0  0  0  0  0  0  0  0  0
   -5.4908   -1.9118    3.8597 S   0  0  0  0  0  0  0  0  0  0  0  0
   -1.3101    1.0920   -0.8626 C   0  0  0  0  0  0  0  0  0  0  0  0
   -0.0570    1.2354   -1.6622 C   0  0  0  0  0  0  0  0  0  0  0  0
    0.0957    1.9659   -2.7506 N   0  0  0  0  0  0  0  0  0  0  0  0
    1.3943    1.8267   -3.1872 N   0  0  0  0  0  0  0  0  0  0  0  0
    2.0042    1.0136   -2.3524 C   0  0  0  0  0  0  0  0  0  0  0  0
    3.3780    0.5533   -2.3999 C   0  0  0  0  0  0  0  0  0  0  0  0
    4.1341    0.8698   -3.3176 O   0  0  0  0  0  0  0  0  0  0  0  0
    3.7497   -0.3272   -1.3142 N   0  0  0  0  0  0  0  0  0  0  0  0
    5.1010   -0.8470   -1.2412 C   0  0  0  0  0  0  0  0  0  0  0  0
    6.2050   -0.1216   -1.7223 C   0  0  0  0  0  0  0  0  0  0  0  0
    7.5095   -0.6277   -1.6361 C   0  0  0  0  0  0  0  0  0  0  0  0
    7.7368   -1.8734   -1.0632 C   0  0  0  0  0  0  0  0  0  0  0  0
    6.6580   -2.5976   -0.5805 C   0  0  0  0  0  0  0  0  0  0  0  0
    6.8654   -3.8031   -0.0334 F   0  0  0  0  0  0  0  0  0  0  0  0
    5.3574   -2.1000   -0.6592 C   0  0  0  0  0  0  0  0  0  0  0  0
    2.7969   -0.6909   -0.3441 C   0  0  0  0  0  0  0  0  0  0  0  0
    1.5337   -0.2403   -0.3657 C   0  0  0  0  0  0  0  0  0  0  0  0
    1.1363    0.6128   -1.3745 N   0  0  0  0  0  0  0  0  0  0  0  0
   -2.0793    4.2809    0.3562 H   0  0  0  0  0  0  0  0  0  0  0  0
   -2.9897    3.3550   -0.8469 H   0  0  0  0  0  0  0  0  0  0  0  0
   -1.3374    3.8799   -1.1946 H   0  0  0  0  0  0  0  0  0  0  0  0
   -0.4458    2.4409    0.5871 H   0  0  0  0  0  0  0  0  0  0  0  0
   -2.3419    2.5938    2.1316 H   0  0  0  0  0  0  0  0  0  0  0  0
   -1.7471    0.9428    1.9249 H   0  0  0  0  0  0  0  0  0  0  0  0
   -3.9057    0.9783    3.1653 H   0  0  0  0  0  0  0  0  0  0  0  0
   -6.2053    0.5994    1.3016 H   0  0  0  0  0  0  0  0  0  0  0  0
   -6.2805    0.7304    3.0691 H   0  0  0  0  0  0  0  0  0  0  0  0
   -5.1547   -1.7259    0.2687 H   0  0  0  0  0  0  0  0  0  0  0  0
   -4.8458   -4.2107    1.1513 H   0  0  0  0  0  0  0  0  0  0  0  0
   -5.1006   -4.3199    3.7722 H   0  0  0  0  0  0  0  0  0  0  0  0
   -2.1597    1.1089   -1.5556 H   0  0  0  0  0  0  0  0  0  0  0  0
   -1.3247    0.1057   -0.3835 H   0  0  0  0  0  0  0  0  0  0  0  0
    6.0881    0.8713   -2.1530 H   0  0  0  0  0  0  0  0  0  0  0  0
    8.3418   -0.0415   -2.0191 H   0  0  0  0  0  0  0  0  0  0  0  0
    8.7392   -2.2827   -0.9946 H   0  0  0  0  0  0  0  0  0  0  0  0
    4.5631   -2.7445   -0.2996 H   0  0  0  0  0  0  0  0  0  0  0  0
    3.1203   -1.3313    0.4704 H   0  0  0  0  0  0  0  0  0  0  0  0
    0.8075   -0.5112    0.3898 H   0  0  0  0  0  0  0  0  0  0  0  0
  1  2  1  0
  2  3  1  0
  3  4  1  0
  4  5  2  0
  4  6  1  0
  6  7  1  0
  7  8  1  0
  8  9  2  0
  9 10  1  0
 10 11  2  0
 11 12  1  0
  2 13  1  0
 13 14  1  0
 14 15  2  0
 15 16  1  0
 16 17  2  0
 17 18  1  0
 18 19  2  0
 18 20  1  0
 20 21  1  0
 21 22  2  0
 22 23  1  0
 23 24  2  0
 24 25  1  0
 25 26  1  0
 25 27  2  0
 20 28  1  0
 28 29  2  0
 29 30  1  0
 12  8  1  0
 30 14  1  0
 30 17  1  0
 27 21  1  0
  1 31  1  0
  1 32  1  0
  1 33  1  0
  2 34  1  0
  3 35  1  0
  3 36  1  0
  6 37  1  0
  7 38  1  0
  7 39  1  0
  9 40  1  0
 10 41  1  0
 11 42  1  0
 13 43  1  0
 13 44  1  0
 22 45  1  0
 23 46  1  0
 24 47  1  0
 27 48  1  0
 28 49  1  0
 29 50  1  0
M  END
$$$$
