
     RDKit          3D

 55 57  0  0  0  0  0  0  0  0999 V2000
   -7.2502   -1.0943   -3.3886 C   0  0  0  0  0  0  0  0  0  0  0  0
   -7.6299   -0.4524   -2.1779 O   0  0  0  0  0  0  0  0  0  0  0  0
   -6.6313    0.1387   -1.4535 C   0  0  0  0  0  0  0  0  0  0  0  0
   -7.0343    0.6614   -0.2234 C   0  0  0  0  0  0  0  0  0  0  0  0
   -6.1144    1.2937    0.6137 C   0  0  0  0  0  0  0  0  0  0  0  0
   -4.7844    1.4183    0.2196 C   0  0  0  0  0  0  0  0  0  0  0  0
   -4.3593    0.8870   -1.0004 C   0  0  0  0  0  0  0  0  0  0  0  0
   -5.2941    0.2557   -1.8399 C   0  0  0  0  0  0  0  0  0  0  0  0
   -2.9232    0.9996   -1.4346 C   0  0  0  0  0  0  0  0  0  0  0  0
   -2.0069    1.4112   -0.2824 C   0  0  0  0  0  0  0  0  0  0  0  0
   -1.5714    0.2149    0.5614 C   0  0  0  0  0  0  0  0  0  0  0  0
   -1.9102   -0.9397    0.3193 O   0  0  0  0  0  0  0  0  0  0  0  0
   -0.6957    0.5275    1.5838 N   0  0  0  0  0  0  0  0  0  0  0  0
   -0.1279   -0.5000    2.4356 C   0  0  0  0  0  0  0  0  0  0  0  0
    1.1023   -1.1714    1.8206 C   0  0  0  0  0  0  0  0  0  0  0  0
    2.3090   -0.2227    1.7680 C   0  0  0  0  0  0  0  0  0  0  0  0
    3.4810   -0.7950    1.0794 N   0  0  0  0  0  0  0  0  0  0  0  0
    4.0493   -1.9264    1.8209 C   0  0  0  0  0  0  0  0  0  0  0  0
    4.5010    0.2551    0.8745 C   0  0  0  0  0  0  0  0  0  0  0  0
    5.6075   -0.1433   -0.0809 C   0  0  0  0  0  0  0  0  0  0  0  0
    5.3052   -0.6233   -1.3644 C   0  0  0  0  0  0  0  0  0  0  0  0
    6.3248   -0.9691   -2.2524 C   0  0  0  0  0  0  0  0  0  0  0  0
    7.6577   -0.8326   -1.8702 C   0  0  0  0  0  0  0  0  0  0  0  0
    7.9720   -0.3504   -0.6008 C   0  0  0  0  0  0  0  0  0  0  0  0
    6.9531   -0.0049    0.2892 C   0  0  0  0  0  0  0  0  0  0  0  0
   -2.7099    2.4805    0.5450 C   0  0  0  0  0  0  0  0  0  0  0  0
   -3.9515    2.0475    1.1031 O   0  0  0  0  0  0  0  0  0  0  0  0
   -6.8621   -0.3707   -4.1131 H   0  0  0  0  0  0  0  0  0  0  0  0
   -8.1469   -1.5483   -3.8211 H   0  0  0  0  0  0  0  0  0  0  0  0
   -6.5275   -1.8957   -3.2028 H   0  0  0  0  0  0  0  0  0  0  0  0
   -8.0717    0.5706    0.0879 H   0  0  0  0  0  0  0  0  0  0  0  0
   -6.4373    1.6917    1.5713 H   0  0  0  0  0  0  0  0  0  0  0  0
   -4.9466   -0.1436   -2.7873 H   0  0  0  0  0  0  0  0  0  0  0  0
   -2.5889    0.0580   -1.8862 H   0  0  0  0  0  0  0  0  0  0  0  0
   -2.8765    1.7686   -2.2168 H   0  0  0  0  0  0  0  0  0  0  0  0
   -1.0845    1.8264   -0.7102 H   0  0  0  0  0  0  0  0  0  0  0  0
   -0.3417    1.4696    1.6716 H   0  0  0  0  0  0  0  0  0  0  0  0
   -0.8971   -1.2570    2.6261 H   0  0  0  0  0  0  0  0  0  0  0  0
    0.1227   -0.0304    3.3927 H   0  0  0  0  0  0  0  0  0  0  0  0
    1.3422   -2.0453    2.4360 H   0  0  0  0  0  0  0  0  0  0  0  0
    0.8693   -1.5344    0.8122 H   0  0  0  0  0  0  0  0  0  0  0  0
    2.5763    0.0957    2.7843 H   0  0  0  0  0  0  0  0  0  0  0  0
    1.9957    0.6788    1.2263 H   0  0  0  0  0  0  0  0  0  0  0  0
    4.3494   -1.6426    2.8360 H   0  0  0  0  0  0  0  0  0  0  0  0
    3.3357   -2.7532    1.8887 H   0  0  0  0  0  0  0  0  0  0  0  0
    4.9244   -2.3428    1.3104 H   0  0  0  0  0  0  0  0  0  0  0  0
    4.0354    1.1479    0.4353 H   0  0  0  0  0  0  0  0  0  0  0  0
    4.9213    0.5694    1.8392 H   0  0  0  0  0  0  0  0  0  0  0  0
    4.2667   -0.7389   -1.6685 H   0  0  0  0  0  0  0  0  0  0  0  0
    6.0770   -1.3473   -3.2405 H   0  0  0  0  0  0  0  0  0  0  0  0
    8.4513   -1.1031   -2.5615 H   0  0  0  0  0  0  0  0  0  0  0  0
    9.0119   -0.2434   -0.3036 H   0  0  0  0  0  0  0  0  0  0  0  0
    7.2173    0.3707    1.2748 H   0  0  0  0  0  0  0  0  0  0  0  0
   -2.0850    2.8083    1.3822 H   0  0  0  0  0  0  0  0  0  0  0  0
   -2.8987    3.3752   -0.0634 H   0  0  0  0  0  0  0  0  0  0  0  0
  1  2  1  0
  2  3  1  0
  3  4  2  0
  4  5  1  0
  5  6  2  0
  6  7  1  0
  7  8  2  0
  7  9  1  0
  9 10  1  0
 10 11  1  0
 11 12  2  0
 11 13  1  0
 13 14  1  0
 14 15  1  0
 15 16  1  0
 16 17  1  0
 17 18  1  0
 17 19  1  0
 19 20  1  0
 20 21  2  0
 21 22  1  0
 22 23  2  0
 23 24  1  0
 24 25  2  0
 10 26  1  0
 26 27  1  0
  8  3  1  0
 25 20  1  0
 27  6  1  0
  1 28  1  0
  1 29  1  0
  1 30  1  0
  4 31  1  0
  5 32  1  0
  8 33  1  0
  9 34  1  0
  9 35  1  0
 10 36  1  0
 13 37  1  0
 14 38  1  0
 14 39  1  0
 15 40  1  0
 15 41  1  0
 16 42  1  0
 16 43  1  0
 18 44  1  0
 18 45  1  0
 18 46  1  0
 19 47  1  0
 19 48  1  0
 21 49  1  0
 22 50  1  0
 23 51  1  0
 24 52  1  0
 25 53  1  0
 26 54  1  0
 26 55  1  0
M  END
$$$$
