
     RDKit          3D

 50 52  0  0  0  0  0  0  0  0999 V2000
    0.2272    1.1967   -1.5807 O   0  0  0  0  0  0  0  0  0  0  0  0
    0.5843    0.2874   -0.8420 C   0  0  0  0  0  0  0  0  0  0  0  0
   -0.3611   -0.4757    0.0666 C   0  0  0  0  0  0  0  0  0  0  0  0
   -1.8195    0.0088   -0.0480 C   0  0  0  0  0  0  0  0  0  0  0  0
   -2.0092    1.3889    0.6186 C   0  0  0  0  0  0  0  0  0  0  0  0
   -3.2706    2.0235    0.2607 N   0  0  0  0  0  0  0  0  0  0  0  0
   -4.4065    2.0286    1.0265 C   0  0  0  0  0  0  0  0  0  0  0  0
   -5.3709    2.7414    0.3479 C   0  0  0  0  0  0  0  0  0  0  0  0
   -4.7916    3.1901   -0.8630 C   0  0  0  0  0  0  0  0  0  0  0  0
   -3.4910    2.7370   -0.8888 C   0  0  0  0  0  0  0  0  0  0  0  0
   -2.7716   -1.0296    0.5426 C   0  0  0  0  0  0  0  0  0  0  0  0
   -3.8424   -1.5031   -0.2329 C   0  0  0  0  0  0  0  0  0  0  0  0
   -4.7370   -2.4429    0.2843 C   0  0  0  0  0  0  0  0  0  0  0  0
   -4.5698   -2.9154    1.5825 C   0  0  0  0  0  0  0  0  0  0  0  0
   -5.6699   -4.0737    2.2212 Cl  0  0  0  0  0  0  0  0  0  0  0  0
   -3.5180   -2.4532    2.3694 C   0  0  0  0  0  0  0  0  0  0  0  0
   -2.6234   -1.5121    1.8533 C   0  0  0  0  0  0  0  0  0  0  0  0
    1.8928   -0.1412   -0.7330 N   0  0  0  0  0  0  0  0  0  0  0  0
    2.9149    0.3877   -1.6174 C   0  0  0  0  0  0  0  0  0  0  0  0
    4.3431    0.1797   -1.1021 C   0  0  0  0  0  0  0  0  0  0  0  0
    4.7711   -1.2984   -1.1023 C   0  0  0  0  0  0  0  0  0  0  0  0
    5.8568   -1.5827   -0.0666 C   0  0  0  0  0  0  0  0  0  0  0  0
    6.7007   -0.4486    0.0840 O   0  0  0  0  0  0  0  0  0  0  0  0
    6.0368    0.6568    0.7002 C   0  0  0  0  0  0  0  0  0  0  0  0
    4.5728    0.7969    0.2793 C   0  0  0  0  0  0  0  0  0  0  0  0
    0.0026   -0.3821    1.0972 H   0  0  0  0  0  0  0  0  0  0  0  0
   -0.2958   -1.5341   -0.2185 H   0  0  0  0  0  0  0  0  0  0  0  0
   -2.0527    0.1060   -1.1178 H   0  0  0  0  0  0  0  0  0  0  0  0
   -1.2239    2.0929    0.3216 H   0  0  0  0  0  0  0  0  0  0  0  0
   -1.9740    1.3215    1.7128 H   0  0  0  0  0  0  0  0  0  0  0  0
   -4.4448    1.5205    1.9811 H   0  0  0  0  0  0  0  0  0  0  0  0
   -6.3819    2.9196    0.6899 H   0  0  0  0  0  0  0  0  0  0  0  0
   -5.2694    3.7821   -1.6325 H   0  0  0  0  0  0  0  0  0  0  0  0
   -2.7101    2.8614   -1.6291 H   0  0  0  0  0  0  0  0  0  0  0  0
   -3.9981   -1.1313   -1.2445 H   0  0  0  0  0  0  0  0  0  0  0  0
   -5.5628   -2.7937   -0.3288 H   0  0  0  0  0  0  0  0  0  0  0  0
   -3.3924   -2.8171    3.3857 H   0  0  0  0  0  0  0  0  0  0  0  0
   -1.8178   -1.1573    2.4917 H   0  0  0  0  0  0  0  0  0  0  0  0
    2.0428   -1.0552   -0.3261 H   0  0  0  0  0  0  0  0  0  0  0  0
    2.7297    1.4588   -1.7621 H   0  0  0  0  0  0  0  0  0  0  0  0
    2.7852   -0.0975   -2.5919 H   0  0  0  0  0  0  0  0  0  0  0  0
    5.0057    0.7050   -1.8055 H   0  0  0  0  0  0  0  0  0  0  0  0
    3.9327   -1.9820   -0.9318 H   0  0  0  0  0  0  0  0  0  0  0  0
    5.1554   -1.5375   -2.1022 H   0  0  0  0  0  0  0  0  0  0  0  0
    6.4688   -2.4314   -0.3887 H   0  0  0  0  0  0  0  0  0  0  0  0
    5.4208   -1.8462    0.9047 H   0  0  0  0  0  0  0  0  0  0  0  0
    6.1149    0.5575    1.7885 H   0  0  0  0  0  0  0  0  0  0  0  0
    6.5934    1.5567    0.4178 H   0  0  0  0  0  0  0  0  0  0  0  0
    3.9458    0.2844    1.0205 H   0  0  0  0  0  0  0  0  0  0  0  0
    4.2783    1.8523    0.3048 H   0  0  0  0  0  0  0  0  0  0  0  0
  1  2  2  0
  2  3  1  0
  3  4  1  0
  4  5  1  0
  5  6  1  0
  6  7  1  0
  7  8  2  0
  8  9  1  0
  9 10  2  0
  4 11  1  0
 11 12  2  0
 12 13  1  0
 13 14  2  0
 14 15  1  0
 14 16  1  0
 16 17  2  0
  2 18  1  0
 18 19  1  0
 19 20  1  0
 20 21  1  0
 21 22  1  0
 22 23  1  0
 23 24  1  0
 24 25  1  0
 10  6  1  0
 17 11  1  0
 25 20  1  0
  3 26  1  0
  3 27  1  0
  4 28  1  0
  5 29  1  0
  5 30  1  0
  7 31  1  0
  8 32  1  0
  9 33  1  0
 10 34  1  0
 12 35  1  0
 13 36  1  0
 16 37  1  0
 17 38  1  0
 18 39  1  0
 19 40  1  0
 19 41  1  0
 20 42  1  0
 21 43  1  0
 21 44  1  0
 22 45  1  0
 22 46  1  0
 24 47  1  0
 24 48  1  0
 25 49  1  0
 25 50  1  0
M  END
$$$$
