
     RDKit          3D

 46 48  0  0  0  0  0  0  0  0999 V2000
    6.0519    1.3493    2.3248 C   0  0  0  0  0  0  0  0  0  0  0  0
    5.5981    0.5324    1.2560 O   0  0  0  0  0  0  0  0  0  0  0  0
    4.4920    0.9521    0.5599 C   0  0  0  0  0  0  0  0  0  0  0  0
    3.6952    2.0428    0.9302 C   0  0  0  0  0  0  0  0  0  0  0  0
    2.5779    2.3893    0.1696 C   0  0  0  0  0  0  0  0  0  0  0  0
    2.2546    1.6357   -0.9592 C   0  0  0  0  0  0  0  0  0  0  0  0
    0.8287    2.0822   -1.9160 S   0  0  0  0  0  6  0  0  0  0  0  0
    0.7060    3.5232   -1.8838 O   0  0  0  0  0  0  0  0  0  0  0  0
    0.8720    1.3515   -3.1653 O   0  0  0  0  0  0  0  0  0  0  0  0
   -0.4124    1.4237   -0.9749 N   0  0  0  0  0  0  0  0  0  0  0  0
   -0.6749   -0.0381   -0.8145 C   0  0  0  0  0  0  0  0  0  0  0  0
   -2.1819    0.2523   -0.6164 C   0  0  0  0  0  0  0  0  0  0  0  0
   -3.1197   -0.5973   -1.3206 O   0  0  0  0  0  0  0  0  0  0  0  0
   -3.3665   -1.8795   -0.7441 C   0  0  0  0  0  0  0  0  0  0  0  0
   -4.3643   -1.7860    0.3824 C   0  0  0  0  0  0  0  0  0  0  0  0
   -4.1248   -2.4354    1.6034 C   0  0  0  0  0  0  0  0  0  0  0  0
   -5.0647   -2.3677    2.6327 C   0  0  0  0  0  0  0  0  0  0  0  0
   -6.2428   -1.6552    2.4420 C   0  0  0  0  0  0  0  0  0  0  0  0
   -7.1457   -1.5973    3.4299 F   0  0  0  0  0  0  0  0  0  0  0  0
   -6.5022   -1.0108    1.2397 C   0  0  0  0  0  0  0  0  0  0  0  0
   -5.5657   -1.0792    0.2086 C   0  0  0  0  0  0  0  0  0  0  0  0
   -1.8653    1.6148   -1.2795 C   0  0  0  0  0  0  0  0  0  0  0  0
    3.0454    0.5522   -1.3519 C   0  0  0  0  0  0  0  0  0  0  0  0
    4.1654    0.2034   -0.5921 C   0  0  0  0  0  0  0  0  0  0  0  0
    4.9969   -0.8504   -0.8811 O   0  0  0  0  0  0  0  0  0  0  0  0
    4.7827   -1.5464   -2.1003 C   0  0  0  0  0  0  0  0  0  0  0  0
    6.2882    2.3612    1.9779 H   0  0  0  0  0  0  0  0  0  0  0  0
    6.9738    0.9079    2.7150 H   0  0  0  0  0  0  0  0  0  0  0  0
    5.3232    1.3709    3.1419 H   0  0  0  0  0  0  0  0  0  0  0  0
    3.9135    2.6380    1.8095 H   0  0  0  0  0  0  0  0  0  0  0  0
    1.9641    3.2386    0.4626 H   0  0  0  0  0  0  0  0  0  0  0  0
   -0.1630   -0.4703    0.0487 H   0  0  0  0  0  0  0  0  0  0  0  0
   -0.4361   -0.6181   -1.7119 H   0  0  0  0  0  0  0  0  0  0  0  0
   -2.4594    0.3725    0.4384 H   0  0  0  0  0  0  0  0  0  0  0  0
   -3.7726   -2.5287   -1.5268 H   0  0  0  0  0  0  0  0  0  0  0  0
   -2.4198   -2.3193   -0.4103 H   0  0  0  0  0  0  0  0  0  0  0  0
   -3.2096   -3.0019    1.7607 H   0  0  0  0  0  0  0  0  0  0  0  0
   -4.8915   -2.8717    3.5789 H   0  0  0  0  0  0  0  0  0  0  0  0
   -7.4314   -0.4656    1.1101 H   0  0  0  0  0  0  0  0  0  0  0  0
   -5.7728   -0.5789   -0.7354 H   0  0  0  0  0  0  0  0  0  0  0  0
   -2.0703    1.6623   -2.3546 H   0  0  0  0  0  0  0  0  0  0  0  0
   -2.2904    2.4899   -0.7814 H   0  0  0  0  0  0  0  0  0  0  0  0
    2.7678   -0.0051   -2.2400 H   0  0  0  0  0  0  0  0  0  0  0  0
    3.8215   -2.0689   -2.0912 H   0  0  0  0  0  0  0  0  0  0  0  0
    4.8599   -0.8736   -2.9614 H   0  0  0  0  0  0  0  0  0  0  0  0
    5.5690   -2.3010   -2.1960 H   0  0  0  0  0  0  0  0  0  0  0  0
  1  2  1  0
  2  3  1  0
  3  4  2  0
  4  5  1  0
  5  6  2  0
  6  7  1  0
  7  8  2  0
  7  9  2  0
  7 10  1  0
 10 11  1  0
 11 12  1  0
 12 13  1  0
 13 14  1  0
 14 15  1  0
 15 16  2  0
 16 17  1  0
 17 18  2  0
 18 19  1  0
 18 20  1  0
 20 21  2  0
 12 22  1  0
  6 23  1  0
 23 24  2  0
 24 25  1  0
 25 26  1  0
 24  3  1  0
 22 10  1  0
 21 15  1  0
  1 27  1  0
  1 28  1  0
  1 29  1  0
  4 30  1  0
  5 31  1  0
 11 32  1  0
 11 33  1  0
 12 34  1  0
 14 35  1  0
 14 36  1  0
 16 37  1  0
 17 38  1  0
 20 39  1  0
 21 40  1  0
 22 41  1  0
 22 42  1  0
 23 43  1  0
 26 44  1  0
 26 45  1  0
 26 46  1  0
M  END
$$$$
