
     RDKit          3D

 36 38  0  0  0  0  0  0  0  0999 V2000
   -5.6074    2.5148   -0.2400 C   0  0  0  0  0  0  0  0  0  0  0  0
   -4.2571    2.0748   -0.1788 O   0  0  0  0  0  0  0  0  0  0  0  0
   -4.0458    0.7259   -0.0804 C   0  0  0  0  0  0  0  0  0  0  0  0
   -5.0377   -0.2526   -0.0235 C   0  0  0  0  0  0  0  0  0  0  0  0
   -4.6829   -1.5981    0.0774 C   0  0  0  0  0  0  0  0  0  0  0  0
   -3.3376   -1.9671    0.1219 C   0  0  0  0  0  0  0  0  0  0  0  0
   -2.3316   -0.9965    0.0657 C   0  0  0  0  0  0  0  0  0  0  0  0
   -1.0023   -1.4520    0.1179 N   0  0  0  0  0  0  0  0  0  0  0  0
    0.1670   -0.7150    0.0714 C   0  0  0  0  0  0  0  0  0  0  0  0
    0.2492    0.5005   -0.0377 O   0  0  0  0  0  0  0  0  0  0  0  0
    1.3366   -1.5921    0.1608 C   0  0  0  0  0  0  0  0  0  0  0  0
    1.1783   -2.9827    0.1974 N   0  0  0  0  0  0  0  0  0  0  0  0
    2.4093   -3.4286    0.2206 C   0  0  0  0  0  0  0  0  0  0  0  0
    3.3660   -2.4735    0.2155 O   0  0  0  0  0  0  0  0  0  0  0  0
    2.6892   -1.2673    0.1965 C   0  0  0  0  0  0  0  0  0  0  0  0
    3.4153   -0.0309    0.2099 C   0  0  0  0  0  0  0  0  0  0  0  0
    3.0526    1.2354    0.6385 C   0  0  0  0  0  0  0  0  0  0  0  0
    4.1662    2.0904    0.4452 C   0  0  0  0  0  0  0  0  0  0  0  0
    5.1635    1.3032   -0.0773 C   0  0  0  0  0  0  0  0  0  0  0  0
    6.5540    1.5628   -0.4966 C   0  0  0  0  0  0  0  0  0  0  0  0
    4.7239    0.0241   -0.2117 O   0  0  0  0  0  0  0  0  0  0  0  0
   -2.6968    0.3476   -0.0353 C   0  0  0  0  0  0  0  0  0  0  0  0
   -5.6002    3.6060   -0.3212 H   0  0  0  0  0  0  0  0  0  0  0  0
   -6.1123    2.1185   -1.1272 H   0  0  0  0  0  0  0  0  0  0  0  0
   -6.1497    2.2528    0.6745 H   0  0  0  0  0  0  0  0  0  0  0  0
   -6.0925   -0.0023   -0.0552 H   0  0  0  0  0  0  0  0  0  0  0  0
   -5.4561   -2.3609    0.1216 H   0  0  0  0  0  0  0  0  0  0  0  0
   -3.0887   -3.0225    0.2006 H   0  0  0  0  0  0  0  0  0  0  0  0
   -0.8521   -2.4556    0.1897 H   0  0  0  0  0  0  0  0  0  0  0  0
    2.7501   -4.4544    0.2428 H   0  0  0  0  0  0  0  0  0  0  0  0
    2.0975    1.5242    1.0537 H   0  0  0  0  0  0  0  0  0  0  0  0
    4.2295    3.1466    0.6664 H   0  0  0  0  0  0  0  0  0  0  0  0
    6.8169    2.6157   -0.3553 H   0  0  0  0  0  0  0  0  0  0  0  0
    7.2504    0.9558    0.0899 H   0  0  0  0  0  0  0  0  0  0  0  0
    6.6871    1.3173   -1.5546 H   0  0  0  0  0  0  0  0  0  0  0  0
   -1.9517    1.1357   -0.0822 H   0  0  0  0  0  0  0  0  0  0  0  0
  1  2  1  0
  2  3  1  0
  3  4  2  0
  4  5  1  0
  5  6  2  0
  6  7  1  0
  7  8  1  0
  8  9  1  0
  9 10  2  0
  9 11  1  0
 11 12  1  0
 12 13  2  0
 13 14  1  0
 14 15  1  0
 15 16  1  0
 16 17  2  0
 17 18  1  0
 18 19  2  0
 19 20  1  0
 19 21  1  0
  7 22  2  0
 22  3  1  0
 15 11  2  0
 21 16  1  0
  1 23  1  0
  1 24  1  0
  1 25  1  0
  4 26  1  0
  5 27  1  0
  6 28  1  0
  8 29  1  0
 13 30  1  0
 17 31  1  0
 18 32  1  0
 20 33  1  0
 20 34  1  0
 20 35  1  0
 22 36  1  0
M  END
$$$$
