
     RDKit          3D

 55 57  0  0  0  0  0  0  0  0999 V2000
    8.1962    2.8584    2.6090 C   0  0  0  0  0  0  0  0  0  0  0  0
    7.8229    2.0375    1.3827 C   0  0  0  0  0  0  0  0  0  0  0  0
    6.7199    1.0299    1.6988 C   0  0  0  0  0  0  0  0  0  0  0  0
    6.3561    0.1968    0.4710 C   0  0  0  0  0  0  0  0  0  0  0  0
    5.3917   -0.7998    0.8138 O   0  0  0  0  0  0  0  0  0  0  0  0
    4.0697   -0.5259    0.6036 C   0  0  0  0  0  0  0  0  0  0  0  0
    3.2306   -1.6425    0.6681 C   0  0  0  0  0  0  0  0  0  0  0  0
    1.8530   -1.5176    0.4680 C   0  0  0  0  0  0  0  0  0  0  0  0
    1.3020   -0.2605    0.1982 C   0  0  0  0  0  0  0  0  0  0  0  0
   -0.1573   -0.0738   -0.0472 C   0  0  0  0  0  0  0  0  0  0  0  0
   -0.6824    0.9723    0.3163 O   0  0  0  0  0  0  0  0  0  0  0  0
   -0.7676   -1.1163   -0.7113 N   0  0  0  0  0  0  0  0  0  0  0  0
   -2.1196   -1.2352   -1.1064 C   0  0  0  0  0  0  0  0  0  0  0  0
   -3.0985   -0.2795   -0.8182 C   0  0  0  0  0  0  0  0  0  0  0  0
   -4.4181   -0.4522   -1.2525 C   0  0  0  0  0  0  0  0  0  0  0  0
   -5.3956    0.5402   -0.9368 N   0  0  0  0  0  0  0  0  0  0  0  0
   -5.4165    1.2642    0.3524 C   0  0  0  0  0  0  0  0  0  0  0  0
   -6.8080    1.8984    0.4781 C   0  0  0  0  0  0  0  0  0  0  0  0
   -7.2524    2.2530   -0.9345 C   0  0  0  0  0  0  0  0  0  0  0  0
   -6.7635    0.8277   -1.8873 S   0  0  0  0  0  6  0  0  0  0  0  0
   -7.7249   -0.2307   -1.6547 O   0  0  0  0  0  0  0  0  0  0  0  0
   -6.3641    1.2301   -3.2162 O   0  0  0  0  0  0  0  0  0  0  0  0
   -4.7473   -1.6023   -1.9730 C   0  0  0  0  0  0  0  0  0  0  0  0
   -3.7783   -2.5686   -2.2642 C   0  0  0  0  0  0  0  0  0  0  0  0
   -2.4637   -2.3923   -1.8350 C   0  0  0  0  0  0  0  0  0  0  0  0
   -1.4338   -3.2769   -2.0618 O   0  0  0  0  0  0  0  0  0  0  0  0
   -1.7277   -4.4191   -2.8562 C   0  0  0  0  0  0  0  0  0  0  0  0
    2.1352    0.8644    0.1698 C   0  0  0  0  0  0  0  0  0  0  0  0
    3.5150    0.7316    0.3685 C   0  0  0  0  0  0  0  0  0  0  0  0
    7.3413    3.4408    2.9669 H   0  0  0  0  0  0  0  0  0  0  0  0
    9.0036    3.5557    2.3633 H   0  0  0  0  0  0  0  0  0  0  0  0
    8.5398    2.2121    3.4242 H   0  0  0  0  0  0  0  0  0  0  0  0
    7.4942    2.7118    0.5813 H   0  0  0  0  0  0  0  0  0  0  0  0
    8.7135    1.5110    1.0180 H   0  0  0  0  0  0  0  0  0  0  0  0
    5.8335    1.5512    2.0763 H   0  0  0  0  0  0  0  0  0  0  0  0
    7.0376    0.3601    2.5085 H   0  0  0  0  0  0  0  0  0  0  0  0
    6.0424    0.8121   -0.3808 H   0  0  0  0  0  0  0  0  0  0  0  0
    7.2473   -0.3457    0.1336 H   0  0  0  0  0  0  0  0  0  0  0  0
    3.6577   -2.6207    0.8776 H   0  0  0  0  0  0  0  0  0  0  0  0
    1.2299   -2.4035    0.5491 H   0  0  0  0  0  0  0  0  0  0  0  0
   -0.1922   -1.8851   -1.0413 H   0  0  0  0  0  0  0  0  0  0  0  0
   -2.8395    0.6190   -0.2706 H   0  0  0  0  0  0  0  0  0  0  0  0
   -4.6519    2.0509    0.3447 H   0  0  0  0  0  0  0  0  0  0  0  0
   -5.2348    0.5891    1.1972 H   0  0  0  0  0  0  0  0  0  0  0  0
   -7.5035    1.1621    0.9049 H   0  0  0  0  0  0  0  0  0  0  0  0
   -6.8019    2.7690    1.1421 H   0  0  0  0  0  0  0  0  0  0  0  0
   -8.3309    2.4005   -1.0170 H   0  0  0  0  0  0  0  0  0  0  0  0
   -6.7127    3.1243   -1.3216 H   0  0  0  0  0  0  0  0  0  0  0  0
   -5.7635   -1.7796   -2.3153 H   0  0  0  0  0  0  0  0  0  0  0  0
   -4.0898   -3.4409   -2.8278 H   0  0  0  0  0  0  0  0  0  0  0  0
   -2.4717   -5.0577   -2.3707 H   0  0  0  0  0  0  0  0  0  0  0  0
   -0.8059   -5.0010   -2.9557 H   0  0  0  0  0  0  0  0  0  0  0  0
   -2.0479   -4.1283   -3.8617 H   0  0  0  0  0  0  0  0  0  0  0  0
    1.7115    1.8505   -0.0126 H   0  0  0  0  0  0  0  0  0  0  0  0
    4.1210    1.6310    0.3443 H   0  0  0  0  0  0  0  0  0  0  0  0
  1  2  1  0
  2  3  1  0
  3  4  1  0
  4  5  1  0
  5  6  1  0
  6  7  2  0
  7  8  1  0
  8  9  2  0
  9 10  1  0
 10 11  2  0
 10 12  1  0
 12 13  1  0
 13 14  2  0
 14 15  1  0
 15 16  1  0
 16 17  1  0
 17 18  1  0
 18 19  1  0
 19 20  1  0
 20 21  2  0
 20 22  2  0
 15 23  2  0
 23 24  1  0
 24 25  2  0
 25 26  1  0
 26 27  1  0
  9 28  1  0
 28 29  2  0
 29  6  1  0
 25 13  1  0
 20 16  1  0
  1 30  1  0
  1 31  1  0
  1 32  1  0
  2 33  1  0
  2 34  1  0
  3 35  1  0
  3 36  1  0
  4 37  1  0
  4 38  1  0
  7 39  1  0
  8 40  1  0
 12 41  1  0
 14 42  1  0
 17 43  1  0
 17 44  1  0
 18 45  1  0
 18 46  1  0
 19 47  1  0
 19 48  1  0
 23 49  1  0
 24 50  1  0
 27 51  1  0
 27 52  1  0
 27 53  1  0
 28 54  1  0
 29 55  1  0
M  END
$$$$
