
     RDKit          3D

 38 40  0  0  0  0  0  0  0  0999 V2000
    3.8540    2.3647   -1.2624 C   0  0  0  0  0  0  0  0  0  0  0  0
    4.1600    1.7070    0.0735 C   0  0  0  0  0  0  0  0  0  0  0  0
    2.9652    1.4514    0.8369 N   0  0  0  0  0  0  0  0  0  0  0  0
    2.3802    2.3254    1.7331 C   0  0  0  0  0  0  0  0  0  0  0  0
    2.8124    3.4222    2.0594 O   0  0  0  0  0  0  0  0  0  0  0  0
    1.1864    1.7935    2.2444 O   0  0  0  0  0  0  0  0  0  0  0  0
    1.0869    0.5822    1.5788 C   0  0  0  0  0  0  0  0  0  0  0  0
    0.0537   -0.3207    1.7201 C   0  0  0  0  0  0  0  0  0  0  0  0
    0.1199   -1.4879    0.9550 C   0  0  0  0  0  0  0  0  0  0  0  0
   -0.9453   -2.4320    1.0292 N   0  0  0  0  0  0  0  0  0  0  0  0
   -2.0147   -2.5043   -0.2833 S   0  0  0  0  0  6  0  0  0  0  0  0
   -1.2803   -2.7467   -1.5037 O   0  0  0  0  0  0  0  0  0  0  0  0
   -3.1089   -3.3548    0.1312 O   0  0  0  0  0  0  0  0  0  0  0  0
   -2.7326   -0.9671   -0.4731 C   0  0  0  0  0  0  0  0  0  0  0  0
   -2.4099    0.0404   -1.4087 C   0  0  0  0  0  0  0  0  0  0  0  0
   -1.4034    0.0431   -2.4965 C   0  0  0  0  0  0  0  0  0  0  0  0
   -3.1714    1.1266   -1.2133 N   0  0  0  0  0  0  0  0  0  0  0  0
   -4.0066    0.8250   -0.1551 O   0  0  0  0  0  0  0  0  0  0  0  0
   -3.7411   -0.4316    0.2913 C   0  0  0  0  0  0  0  0  0  0  0  0
   -4.5559   -0.9083    1.4241 C   0  0  0  0  0  0  0  0  0  0  0  0
    1.1972   -1.7159    0.0750 C   0  0  0  0  0  0  0  0  0  0  0  0
    2.2322   -0.7828   -0.0498 C   0  0  0  0  0  0  0  0  0  0  0  0
    2.1438    0.3558    0.7200 C   0  0  0  0  0  0  0  0  0  0  0  0
    3.2219    1.7222   -1.8840 H   0  0  0  0  0  0  0  0  0  0  0  0
    3.3275    3.3144   -1.1211 H   0  0  0  0  0  0  0  0  0  0  0  0
    4.7806    2.5645   -1.8092 H   0  0  0  0  0  0  0  0  0  0  0  0
    4.7059    0.7689   -0.0733 H   0  0  0  0  0  0  0  0  0  0  0  0
    4.8052    2.3736    0.6572 H   0  0  0  0  0  0  0  0  0  0  0  0
   -0.7684   -0.1110    2.3937 H   0  0  0  0  0  0  0  0  0  0  0  0
   -1.4572   -2.4635    1.9106 H   0  0  0  0  0  0  0  0  0  0  0  0
   -0.4068   -0.1798   -2.1054 H   0  0  0  0  0  0  0  0  0  0  0  0
   -1.6587   -0.7001   -3.2582 H   0  0  0  0  0  0  0  0  0  0  0  0
   -1.3508    1.0192   -2.9909 H   0  0  0  0  0  0  0  0  0  0  0  0
   -3.9267   -1.3911    2.1781 H   0  0  0  0  0  0  0  0  0  0  0  0
   -5.0829   -0.0809    1.9097 H   0  0  0  0  0  0  0  0  0  0  0  0
   -5.3021   -1.6307    1.0802 H   0  0  0  0  0  0  0  0  0  0  0  0
    1.2315   -2.6295   -0.5169 H   0  0  0  0  0  0  0  0  0  0  0  0
    3.0590   -0.9615   -0.7270 H   0  0  0  0  0  0  0  0  0  0  0  0
  1  2  1  0
  2  3  1  0
  3  4  1  0
  4  5  2  0
  4  6  1  0
  6  7  1  0
  7  8  2  0
  8  9  1  0
  9 10  1  0
 10 11  1  0
 11 12  2  0
 11 13  2  0
 11 14  1  0
 14 15  1  0
 15 16  1  0
 15 17  2  0
 17 18  1  0
 18 19  1  0
 19 20  1  0
  9 21  2  0
 21 22  1  0
 22 23  2  0
 23  3  1  0
 23  7  1  0
 19 14  2  0
  1 24  1  0
  1 25  1  0
  1 26  1  0
  2 27  1  0
  2 28  1  0
  8 29  1  0
 10 30  1  0
 16 31  1  0
 16 32  1  0
 16 33  1  0
 20 34  1  0
 20 35  1  0
 20 36  1  0
 21 37  1  0
 22 38  1  0
M  END
$$$$
