
     RDKit          3D

 47 50  0  0  0  0  0  0  0  0999 V2000
    8.4710    1.4516    1.0557 C   0  0  0  0  0  0  0  0  0  0  0  0
    7.1579    0.7920    0.8296 C   0  0  0  0  0  0  0  0  0  0  0  0
    6.4102    0.1471    1.7285 C   0  0  0  0  0  0  0  0  0  0  0  0
    5.2578   -0.2908    0.9536 C   0  0  0  0  0  0  0  0  0  0  0  0
    4.2477   -0.9876    1.3451 N   0  0  0  0  0  0  0  0  0  0  0  0
    3.2966   -1.2673    0.3713 C   0  0  0  0  0  0  0  0  0  0  0  0
    2.1095   -2.0978    0.8302 C   0  0  0  0  0  0  0  0  0  0  0  0
    0.8918   -1.0780    1.7273 S   0  0  0  0  0  0  0  0  0  0  0  0
   -0.0023   -0.3936    0.4170 C   0  0  0  0  0  0  0  0  0  0  0  0
    0.1621   -0.6565   -0.8593 N   0  0  0  0  0  0  0  0  0  0  0  0
   -0.7695    0.0671   -1.5583 N   0  0  0  0  0  0  0  0  0  0  0  0
   -1.4952    0.7527   -0.6912 C   0  0  0  0  0  0  0  0  0  0  0  0
   -2.6597    1.6197   -1.0216 C   0  0  0  0  0  0  0  0  0  0  0  0
   -3.8039    1.1672   -0.2887 O   0  0  0  0  0  0  0  0  0  0  0  0
   -4.6048    0.2021   -0.8427 C   0  0  0  0  0  0  0  0  0  0  0  0
   -4.2702   -0.5743   -1.9570 C   0  0  0  0  0  0  0  0  0  0  0  0
   -5.1590   -1.5394   -2.4417 C   0  0  0  0  0  0  0  0  0  0  0  0
   -6.3852   -1.7403   -1.8139 C   0  0  0  0  0  0  0  0  0  0  0  0
   -6.7226   -0.9818   -0.6935 C   0  0  0  0  0  0  0  0  0  0  0  0
   -5.8375   -0.0130   -0.1944 C   0  0  0  0  0  0  0  0  0  0  0  0
   -6.2269    0.7893    1.0147 C   0  0  0  0  0  0  0  0  0  0  0  0
   -1.0134    0.5144    0.5756 N   0  0  0  0  0  0  0  0  0  0  0  0
   -1.5128    1.0669    1.8083 C   0  0  0  0  0  0  0  0  0  0  0  0
    3.4156   -0.8976   -0.9209 C   0  0  0  0  0  0  0  0  0  0  0  0
    4.5960   -0.1141   -1.3535 C   0  0  0  0  0  0  0  0  0  0  0  0
    4.7489    0.1978   -2.5271 O   0  0  0  0  0  0  0  0  0  0  0  0
    5.4294    0.1657   -0.3232 N   0  0  0  0  0  0  0  0  0  0  0  0
    6.6399    0.8509   -0.4629 O   0  0  0  0  0  0  0  0  0  0  0  0
    8.4157    2.5128    0.7830 H   0  0  0  0  0  0  0  0  0  0  0  0
    9.2464    0.9751    0.4449 H   0  0  0  0  0  0  0  0  0  0  0  0
    8.7748    1.3884    2.1053 H   0  0  0  0  0  0  0  0  0  0  0  0
    6.5810   -0.0390    2.7704 H   0  0  0  0  0  0  0  0  0  0  0  0
    2.4604   -2.8795    1.5166 H   0  0  0  0  0  0  0  0  0  0  0  0
    1.6310   -2.6278   -0.0036 H   0  0  0  0  0  0  0  0  0  0  0  0
   -2.8495    1.6785   -2.0987 H   0  0  0  0  0  0  0  0  0  0  0  0
   -2.4517    2.6467   -0.6939 H   0  0  0  0  0  0  0  0  0  0  0  0
   -3.3171   -0.4737   -2.4705 H   0  0  0  0  0  0  0  0  0  0  0  0
   -4.8858   -2.1376   -3.3081 H   0  0  0  0  0  0  0  0  0  0  0  0
   -7.0780   -2.4921   -2.1925 H   0  0  0  0  0  0  0  0  0  0  0  0
   -7.6819   -1.1542   -0.2096 H   0  0  0  0  0  0  0  0  0  0  0  0
   -7.1640    0.4274    1.4510 H   0  0  0  0  0  0  0  0  0  0  0  0
   -5.4564    0.7060    1.7853 H   0  0  0  0  0  0  0  0  0  0  0  0
   -6.3643    1.8416    0.7423 H   0  0  0  0  0  0  0  0  0  0  0  0
   -2.0558    1.9927    1.6083 H   0  0  0  0  0  0  0  0  0  0  0  0
   -0.6784    1.3021    2.4716 H   0  0  0  0  0  0  0  0  0  0  0  0
   -2.1781    0.3338    2.2732 H   0  0  0  0  0  0  0  0  0  0  0  0
    2.6807   -1.1331   -1.6818 H   0  0  0  0  0  0  0  0  0  0  0  0
  1  2  1  0
  2  3  2  0
  3  4  1  0
  4  5  2  0
  5  6  1  0
  6  7  1  0
  7  8  1  0
  8  9  1  0
  9 10  2  0
 10 11  1  0
 11 12  2  0
 12 13  1  0
 13 14  1  0
 14 15  1  0
 15 16  2  0
 16 17  1  0
 17 18  2  0
 18 19  1  0
 19 20  2  0
 20 21  1  0
 12 22  1  0
 22 23  1  0
  6 24  2  0
 24 25  1  0
 25 26  2  0
 25 27  1  0
 27 28  1  0
 28  2  1  0
 27  4  1  0
 22  9  1  0
 20 15  1  0
  1 29  1  0
  1 30  1  0
  1 31  1  0
  3 32  1  0
  7 33  1  0
  7 34  1  0
 13 35  1  0
 13 36  1  0
 16 37  1  0
 17 38  1  0
 18 39  1  0
 19 40  1  0
 21 41  1  0
 21 42  1  0
 21 43  1  0
 23 44  1  0
 23 45  1  0
 23 46  1  0
 24 47  1  0
M  END
$$$$
