
     RDKit          3D

 44 46  0  0  0  0  0  0  0  0999 V2000
    7.7321    0.2215   -0.9098 N   0  0  0  0  0  0  0  0  0  0  0  0
    6.4138   -0.5523   -1.6230 S   0  0  0  0  0  6  0  0  0  0  0  0
    6.0911    0.1417   -2.8470 O   0  0  0  0  0  0  0  0  0  0  0  0
    6.7340   -1.9612   -1.5868 O   0  0  0  0  0  0  0  0  0  0  0  0
    5.1303   -0.2333   -0.4427 C   0  0  0  0  0  0  0  0  0  0  0  0
    4.7078   -1.2443    0.4228 C   0  0  0  0  0  0  0  0  0  0  0  0
    3.6913   -0.9813    1.3431 C   0  0  0  0  0  0  0  0  0  0  0  0
    3.0990    0.2898    1.4052 C   0  0  0  0  0  0  0  0  0  0  0  0
    1.9805    0.5727    2.3786 C   0  0  0  0  0  0  0  0  0  0  0  0
    0.6986    0.5459    1.7119 N   0  0  0  0  0  0  0  0  0  0  0  0
    0.0775    1.7096    1.3065 C   0  0  0  0  0  0  0  0  0  0  0  0
    0.5082    2.8319    1.5480 O   0  0  0  0  0  0  0  0  0  0  0  0
   -1.1589    1.5399    0.4973 C   0  0  0  0  0  0  0  0  0  0  0  0
   -1.4570    2.4986   -0.4727 C   0  0  0  0  0  0  0  0  0  0  0  0
   -2.6001    2.3544   -1.2541 C   0  0  0  0  0  0  0  0  0  0  0  0
   -3.4526    1.2616   -1.0572 C   0  0  0  0  0  0  0  0  0  0  0  0
   -3.1939    0.3025   -0.0708 C   0  0  0  0  0  0  0  0  0  0  0  0
   -4.0092   -0.8094    0.1690 N   0  0  0  0  0  0  0  0  0  0  0  0
   -5.1688   -1.3082   -0.4190 C   0  0  0  0  0  0  0  0  0  0  0  0
   -5.6719   -2.4059    0.1773 N   0  0  0  0  0  0  0  0  0  0  0  0
   -6.7883   -2.9408   -0.3536 C   0  0  0  0  0  0  0  0  0  0  0  0
   -7.4235   -2.4275   -1.4559 C   0  0  0  0  0  0  0  0  0  0  0  0
   -6.8386   -1.3100   -1.9973 C   0  0  0  0  0  0  0  0  0  0  0  0
   -5.7242   -0.7403   -1.5016 N   0  0  0  0  0  0  0  0  0  0  0  0
   -2.0294    0.4575    0.7016 C   0  0  0  0  0  0  0  0  0  0  0  0
    3.5328    1.2918    0.5220 C   0  0  0  0  0  0  0  0  0  0  0  0
    4.5431    1.0329   -0.4047 C   0  0  0  0  0  0  0  0  0  0  0  0
    7.4777    0.7857   -0.0994 H   0  0  0  0  0  0  0  0  0  0  0  0
    8.4385   -0.4792   -0.6780 H   0  0  0  0  0  0  0  0  0  0  0  0
    5.1537   -2.2361    0.3833 H   0  0  0  0  0  0  0  0  0  0  0  0
    3.3613   -1.7760    2.0096 H   0  0  0  0  0  0  0  0  0  0  0  0
    2.1462    1.5361    2.8737 H   0  0  0  0  0  0  0  0  0  0  0  0
    1.9511   -0.1936    3.1613 H   0  0  0  0  0  0  0  0  0  0  0  0
    0.4307   -0.3232    1.2704 H   0  0  0  0  0  0  0  0  0  0  0  0
   -0.7978    3.3504   -0.6258 H   0  0  0  0  0  0  0  0  0  0  0  0
   -2.8344    3.0911   -2.0192 H   0  0  0  0  0  0  0  0  0  0  0  0
   -4.3340    1.1877   -1.6889 H   0  0  0  0  0  0  0  0  0  0  0  0
   -3.7853   -1.3909    0.9638 H   0  0  0  0  0  0  0  0  0  0  0  0
   -7.1654   -3.8253    0.1541 H   0  0  0  0  0  0  0  0  0  0  0  0
   -8.3174   -2.8713   -1.8690 H   0  0  0  0  0  0  0  0  0  0  0  0
   -7.2567   -0.8214   -2.8744 H   0  0  0  0  0  0  0  0  0  0  0  0
   -1.8152   -0.2624    1.4864 H   0  0  0  0  0  0  0  0  0  0  0  0
    3.0691    2.2776    0.5485 H   0  0  0  0  0  0  0  0  0  0  0  0
    4.8541    1.8128   -1.0979 H   0  0  0  0  0  0  0  0  0  0  0  0
  1  2  1  0
  2  3  2  0
  2  4  2  0
  2  5  1  0
  5  6  2  0
  6  7  1  0
  7  8  2  0
  8  9  1  0
  9 10  1  0
 10 11  1  0
 11 12  2  0
 11 13  1  0
 13 14  2  0
 14 15  1  0
 15 16  2  0
 16 17  1  0
 17 18  1  0
 18 19  1  0
 19 20  2  0
 20 21  1  0
 21 22  2  0
 22 23  1  0
 23 24  2  0
 17 25  2  0
  8 26  1  0
 26 27  2  0
 27  5  1  0
 25 13  1  0
 24 19  1  0
  1 28  1  0
  1 29  1  0
  6 30  1  0
  7 31  1  0
  9 32  1  0
  9 33  1  0
 10 34  1  0
 14 35  1  0
 15 36  1  0
 16 37  1  0
 18 38  1  0
 21 39  1  0
 22 40  1  0
 23 41  1  0
 25 42  1  0
 26 43  1  0
 27 44  1  0
M  END
$$$$
