
     RDKit          3D

 59 61  0  0  0  0  0  0  0  0999 V2000
   -5.6863   -2.4194    1.8810 C   0  0  0  0  0  0  0  0  0  0  0  0
   -5.2433   -1.2801    1.0114 C   0  0  0  0  0  0  0  0  0  0  0  0
   -4.7919   -0.0895    1.5803 C   0  0  0  0  0  0  0  0  0  0  0  0
   -4.3958    1.0017    0.7848 C   0  0  0  0  0  0  0  0  0  0  0  0
   -3.9464    2.2446    1.5084 C   0  0  0  0  0  0  0  0  0  0  0  0
   -4.4745    0.8909   -0.6292 C   0  0  0  0  0  0  0  0  0  0  0  0
   -3.9586    2.2857   -1.6450 S   0  0  0  0  0  6  0  0  0  0  0  0
   -4.4745    3.4991   -1.0512 O   0  0  0  0  0  0  0  0  0  0  0  0
   -4.1463    2.0217   -3.0525 O   0  0  0  0  0  0  0  0  0  0  0  0
   -2.2903    2.3096   -1.3802 N   0  0  0  0  0  0  0  0  0  0  0  0
   -1.4555    1.3617   -2.1390 C   0  0  0  0  0  0  0  0  0  0  0  0
   -0.1845    1.0810   -1.3590 C   0  0  0  0  0  0  0  0  0  0  0  0
    0.8308   -0.0706   -2.2743 S   0  0  0  0  0  6  0  0  0  0  0  0
    0.1160   -1.3259   -2.3636 O   0  0  0  0  0  0  0  0  0  0  0  0
    1.3071    0.6065   -3.4614 O   0  0  0  0  0  0  0  0  0  0  0  0
    2.1535   -0.3099   -1.2585 N   0  0  0  0  0  0  0  0  0  0  0  0
    1.9201   -1.0657    0.0095 C   0  0  0  0  0  0  0  0  0  0  0  0
    3.2604   -1.5368    0.6078 C   0  0  0  0  0  0  0  0  0  0  0  0
    4.1539   -0.3772    0.8301 N   0  0  0  0  0  0  0  0  0  0  0  0
    5.3257   -0.5961    1.5759 C   0  0  0  0  0  0  0  0  0  0  0  0
    5.8915   -1.8620    1.7868 C   0  0  0  0  0  0  0  0  0  0  0  0
    7.0657   -2.0190    2.5324 C   0  0  0  0  0  0  0  0  0  0  0  0
    7.6943   -0.9107    3.0917 C   0  0  0  0  0  0  0  0  0  0  0  0
    7.1453    0.3542    2.9106 C   0  0  0  0  0  0  0  0  0  0  0  0
    5.9736    0.5047    2.1632 C   0  0  0  0  0  0  0  0  0  0  0  0
    4.4138    0.3688   -0.4285 C   0  0  0  0  0  0  0  0  0  0  0  0
    3.0871    0.8391   -1.0591 C   0  0  0  0  0  0  0  0  0  0  0  0
   -4.9563   -0.3040   -1.2173 C   0  0  0  0  0  0  0  0  0  0  0  0
   -5.1042   -0.5260   -2.6991 C   0  0  0  0  0  0  0  0  0  0  0  0
   -5.3361   -1.3704   -0.3779 C   0  0  0  0  0  0  0  0  0  0  0  0
   -5.5374   -3.3790    1.3742 H   0  0  0  0  0  0  0  0  0  0  0  0
   -5.1050   -2.4502    2.8094 H   0  0  0  0  0  0  0  0  0  0  0  0
   -6.7463   -2.3115    2.1294 H   0  0  0  0  0  0  0  0  0  0  0  0
   -4.7506   -0.0087    2.6661 H   0  0  0  0  0  0  0  0  0  0  0  0
   -2.9795    2.5957    1.1406 H   0  0  0  0  0  0  0  0  0  0  0  0
   -3.8124    2.0545    2.5807 H   0  0  0  0  0  0  0  0  0  0  0  0
   -4.6992    3.0332    1.4149 H   0  0  0  0  0  0  0  0  0  0  0  0
   -1.9543    3.2649   -1.2501 H   0  0  0  0  0  0  0  0  0  0  0  0
   -1.9962    0.4253   -2.3022 H   0  0  0  0  0  0  0  0  0  0  0  0
   -1.2234    1.7968   -3.1169 H   0  0  0  0  0  0  0  0  0  0  0  0
   -0.4211    0.6356   -0.3882 H   0  0  0  0  0  0  0  0  0  0  0  0
    0.3888    1.9998   -1.2076 H   0  0  0  0  0  0  0  0  0  0  0  0
    1.2987   -1.9461   -0.1812 H   0  0  0  0  0  0  0  0  0  0  0  0
    1.4022   -0.4195    0.7274 H   0  0  0  0  0  0  0  0  0  0  0  0
    3.7276   -2.2529   -0.0809 H   0  0  0  0  0  0  0  0  0  0  0  0
    3.0526   -2.0459    1.5569 H   0  0  0  0  0  0  0  0  0  0  0  0
    5.4462   -2.7550    1.3595 H   0  0  0  0  0  0  0  0  0  0  0  0
    7.4893   -3.0110    2.6712 H   0  0  0  0  0  0  0  0  0  0  0  0
    8.6073   -1.0334    3.6685 H   0  0  0  0  0  0  0  0  0  0  0  0
    7.6230    1.2247    3.3526 H   0  0  0  0  0  0  0  0  0  0  0  0
    5.5496    1.5004    2.0548 H   0  0  0  0  0  0  0  0  0  0  0  0
    5.0348    1.2551   -0.2531 H   0  0  0  0  0  0  0  0  0  0  0  0
    4.9483   -0.2796   -1.1354 H   0  0  0  0  0  0  0  0  0  0  0  0
    3.3114    1.3158   -2.0175 H   0  0  0  0  0  0  0  0  0  0  0  0
    2.6127    1.5791   -0.4049 H   0  0  0  0  0  0  0  0  0  0  0  0
   -5.8182    0.1849   -3.1247 H   0  0  0  0  0  0  0  0  0  0  0  0
   -5.4953   -1.5268   -2.9200 H   0  0  0  0  0  0  0  0  0  0  0  0
   -4.1337   -0.4583   -3.1987 H   0  0  0  0  0  0  0  0  0  0  0  0
   -5.7141   -2.2934   -0.8181 H   0  0  0  0  0  0  0  0  0  0  0  0
  1  2  1  0
  2  3  2  0
  3  4  1  0
  4  5  1  0
  4  6  2  0
  6  7  1  0
  7  8  2  0
  7  9  2  0
  7 10  1  0
 10 11  1  0
 11 12  1  0
 12 13  1  0
 13 14  2  0
 13 15  2  0
 13 16  1  0
 16 17  1  0
 17 18  1  0
 18 19  1  0
 19 20  1  0
 20 21  2  0
 21 22  1  0
 22 23  2  0
 23 24  1  0
 24 25  2  0
 19 26  1  0
 26 27  1  0
  6 28  1  0
 28 29  1  0
 28 30  2  0
 30  2  1  0
 27 16  1  0
 25 20  1  0
  1 31  1  0
  1 32  1  0
  1 33  1  0
  3 34  1  0
  5 35  1  0
  5 36  1  0
  5 37  1  0
 10 38  1  0
 11 39  1  0
 11 40  1  0
 12 41  1  0
 12 42  1  0
 17 43  1  0
 17 44  1  0
 18 45  1  0
 18 46  1  0
 21 47  1  0
 22 48  1  0
 23 49  1  0
 24 50  1  0
 25 51  1  0
 26 52  1  0
 26 53  1  0
 27 54  1  0
 27 55  1  0
 29 56  1  0
 29 57  1  0
 29 58  1  0
 30 59  1  0
M  END
$$$$
