
     RDKit          3D

 42 44  0  0  0  0  0  0  0  0999 V2000
   -4.6007   -0.9174    1.2120 C   0  0  0  0  0  0  0  0  0  0  0  0
   -3.2639   -0.1523    1.1470 C   0  0  0  0  0  0  0  0  0  0  0  0
   -2.4601   -0.3780    2.4390 C   0  0  0  0  0  0  0  0  0  0  0  0
   -3.5863    1.3507    1.0118 C   0  0  0  0  0  0  0  0  0  0  0  0
   -2.4806   -0.5541   -0.0333 N   0  0  0  0  0  0  0  0  0  0  0  0
   -2.1107   -1.8545   -0.3182 C   0  0  0  0  0  0  0  0  0  0  0  0
   -2.3477   -2.8245    0.3975 O   0  0  0  0  0  0  0  0  0  0  0  0
   -1.2765   -1.9923   -1.5852 C   0  0  0  0  0  0  0  0  0  0  0  0
    0.1197   -2.0830   -1.1989 N   0  0  0  0  0  0  0  0  0  0  0  0
    0.6998   -3.3283   -1.0012 C   0  0  0  0  0  0  0  0  0  0  0  0
    1.9347   -3.5387   -0.6699 N   0  0  0  0  0  0  0  0  0  0  0  0
    2.6460   -2.3967   -0.5077 C   0  0  0  0  0  0  0  0  0  0  0  0
    3.9700   -2.3534   -0.1999 O   0  0  0  0  0  0  0  0  0  0  0  0
    4.3905   -1.0342   -0.1234 N   0  0  0  0  0  0  0  0  0  0  0  0
    3.3082   -0.2727   -0.3617 C   0  0  0  0  0  0  0  0  0  0  0  0
    3.4138    1.1853   -0.3452 C   0  0  0  0  0  0  0  0  0  0  0  0
    2.4479    1.9790    0.2903 C   0  0  0  0  0  0  0  0  0  0  0  0
    2.5732    3.3721    0.3107 C   0  0  0  0  0  0  0  0  0  0  0  0
    3.6670    3.9782   -0.3008 C   0  0  0  0  0  0  0  0  0  0  0  0
    3.8137    5.6917   -0.2791 Cl  0  0  0  0  0  0  0  0  0  0  0  0
    4.6403    3.2054   -0.9293 C   0  0  0  0  0  0  0  0  0  0  0  0
    4.5160    1.8118   -0.9462 C   0  0  0  0  0  0  0  0  0  0  0  0
    2.1919   -1.1027   -0.6205 C   0  0  0  0  0  0  0  0  0  0  0  0
    0.8160   -0.8943   -0.9666 C   0  0  0  0  0  0  0  0  0  0  0  0
    0.2862    0.2137   -1.0345 O   0  0  0  0  0  0  0  0  0  0  0  0
   -5.1516   -0.8275    0.2665 H   0  0  0  0  0  0  0  0  0  0  0  0
   -5.2414   -0.5319    2.0153 H   0  0  0  0  0  0  0  0  0  0  0  0
   -4.4566   -1.9863    1.4013 H   0  0  0  0  0  0  0  0  0  0  0  0
   -2.2670   -1.4438    2.6112 H   0  0  0  0  0  0  0  0  0  0  0  0
   -1.4878    0.1276    2.3984 H   0  0  0  0  0  0  0  0  0  0  0  0
   -3.0028    0.0030    3.3120 H   0  0  0  0  0  0  0  0  0  0  0  0
   -2.6693    1.9523    1.0059 H   0  0  0  0  0  0  0  0  0  0  0  0
   -4.2137    1.7046    1.8403 H   0  0  0  0  0  0  0  0  0  0  0  0
   -4.1193    1.5524    0.0739 H   0  0  0  0  0  0  0  0  0  0  0  0
   -1.8838    0.1695   -0.4407 H   0  0  0  0  0  0  0  0  0  0  0  0
   -1.4382   -1.1381   -2.2521 H   0  0  0  0  0  0  0  0  0  0  0  0
   -1.5932   -2.9017   -2.1084 H   0  0  0  0  0  0  0  0  0  0  0  0
    0.0179   -4.1828   -1.1559 H   0  0  0  0  0  0  0  0  0  0  0  0
    1.5937    1.5268    0.7880 H   0  0  0  0  0  0  0  0  0  0  0  0
    1.8158    3.9755    0.8068 H   0  0  0  0  0  0  0  0  0  0  0  0
    5.4996    3.6737   -1.3999 H   0  0  0  0  0  0  0  0  0  0  0  0
    5.2894    1.2160   -1.4305 H   0  0  0  0  0  0  0  0  0  0  0  0
  1  2  1  0
  2  3  1  0
  2  4  1  0
  2  5  1  0
  5  6  1  0
  6  7  2  0
  6  8  1  0
  8  9  1  0
  9 10  1  0
 10 11  2  0
 11 12  1  0
 12 13  1  0
 13 14  1  0
 14 15  2  0
 15 16  1  0
 16 17  2  0
 17 18  1  0
 18 19  2  0
 19 20  1  0
 19 21  1  0
 21 22  2  0
 15 23  1  0
 23 24  1  0
 24 25  2  0
 24  9  1  0
 23 12  2  0
 22 16  1  0
  1 26  1  0
  1 27  1  0
  1 28  1  0
  3 29  1  0
  3 30  1  0
  3 31  1  0
  4 32  1  0
  4 33  1  0
  4 34  1  0
  5 35  1  0
  8 36  1  0
  8 37  1  0
 10 38  1  0
 17 39  1  0
 18 40  1  0
 21 41  1  0
 22 42  1  0
M  END
$$$$
