
     RDKit          3D

 45 47  0  0  0  0  0  0  0  0999 V2000
    2.9303   -0.5175   -1.2260 C   0  0  0  0  0  0  0  0  0  0  0  0
    2.6240   -0.1409    0.1765 N   0  0  0  0  0  0  0  0  0  0  0  0
    1.2391   -0.2752    0.5712 C   0  0  0  0  0  0  0  0  0  0  0  0
    0.9280   -0.7691    1.8362 C   0  0  0  0  0  0  0  0  0  0  0  0
   -0.3328   -0.8899    2.3191 N   0  0  0  0  0  0  0  0  0  0  0  0
   -1.3318   -0.4608    1.5112 C   0  0  0  0  0  0  0  0  0  0  0  0
   -1.1293    0.0589    0.2388 C   0  0  0  0  0  0  0  0  0  0  0  0
   -2.2449    0.5102   -0.6256 C   0  0  0  0  0  0  0  0  0  0  0  0
   -2.0323    1.3096   -1.5299 O   0  0  0  0  0  0  0  0  0  0  0  0
   -3.4857   -0.0433   -0.3924 N   0  0  0  0  0  0  0  0  0  0  0  0
   -4.5902    0.2706   -1.2721 C   0  0  0  0  0  0  0  0  0  0  0  0
   -5.8643   -0.3327   -0.7672 C   0  0  0  0  0  0  0  0  0  0  0  0
   -6.2488   -1.6299   -1.1221 C   0  0  0  0  0  0  0  0  0  0  0  0
   -7.4276   -2.1650   -0.6108 C   0  0  0  0  0  0  0  0  0  0  0  0
   -8.1826   -1.3847    0.2493 C   0  0  0  0  0  0  0  0  0  0  0  0
   -7.8361   -0.1354    0.6275 N   0  0  0  0  0  0  0  0  0  0  0  0
   -6.6871    0.3616    0.1133 C   0  0  0  0  0  0  0  0  0  0  0  0
    0.1860    0.1780   -0.2230 C   0  0  0  0  0  0  0  0  0  0  0  0
    3.2996    1.3662    0.6788 S   0  0  0  0  0  6  0  0  0  0  0  0
    3.0518    1.5412    2.0944 O   0  0  0  0  0  0  0  0  0  0  0  0
    2.9018    2.3720   -0.2853 O   0  0  0  0  0  0  0  0  0  0  0  0
    5.0448    1.0792    0.4918 C   0  0  0  0  0  0  0  0  0  0  0  0
    5.7539    1.7044   -0.5385 C   0  0  0  0  0  0  0  0  0  0  0  0
    7.1237    1.4711   -0.6653 C   0  0  0  0  0  0  0  0  0  0  0  0
    7.7757    0.6274    0.2365 C   0  0  0  0  0  0  0  0  0  0  0  0
    7.0643    0.0175    1.2723 C   0  0  0  0  0  0  0  0  0  0  0  0
    5.6947    0.2444    1.4061 C   0  0  0  0  0  0  0  0  0  0  0  0
    2.6726    0.2810   -1.9291 H   0  0  0  0  0  0  0  0  0  0  0  0
    2.3740   -1.4187   -1.5084 H   0  0  0  0  0  0  0  0  0  0  0  0
    3.9914   -0.7597   -1.3289 H   0  0  0  0  0  0  0  0  0  0  0  0
    1.7114   -1.0910    2.5167 H   0  0  0  0  0  0  0  0  0  0  0  0
   -2.3198   -0.5350    1.9551 H   0  0  0  0  0  0  0  0  0  0  0  0
   -3.5677   -0.8803    0.1684 H   0  0  0  0  0  0  0  0  0  0  0  0
   -4.3523   -0.1114   -2.2732 H   0  0  0  0  0  0  0  0  0  0  0  0
   -4.6798    1.3609   -1.3632 H   0  0  0  0  0  0  0  0  0  0  0  0
   -5.6356   -2.2238   -1.7958 H   0  0  0  0  0  0  0  0  0  0  0  0
   -7.7511   -3.1647   -0.8773 H   0  0  0  0  0  0  0  0  0  0  0  0
   -9.1127   -1.7561    0.6709 H   0  0  0  0  0  0  0  0  0  0  0  0
   -6.4393    1.3670    0.4457 H   0  0  0  0  0  0  0  0  0  0  0  0
    0.3738    0.6305   -1.1929 H   0  0  0  0  0  0  0  0  0  0  0  0
    5.2547    2.3729   -1.2360 H   0  0  0  0  0  0  0  0  0  0  0  0
    7.6864    1.9537   -1.4602 H   0  0  0  0  0  0  0  0  0  0  0  0
    8.8455    0.4535    0.1392 H   0  0  0  0  0  0  0  0  0  0  0  0
    7.5808   -0.6261    1.9809 H   0  0  0  0  0  0  0  0  0  0  0  0
    5.1434   -0.2205    2.2218 H   0  0  0  0  0  0  0  0  0  0  0  0
  1  2  1  0
  2  3  1  0
  3  4  2  0
  4  5  1  0
  5  6  2  0
  6  7  1  0
  7  8  1  0
  8  9  2  0
  8 10  1  0
 10 11  1  0
 11 12  1  0
 12 13  2  0
 13 14  1  0
 14 15  2  0
 15 16  1  0
 16 17  2  0
  7 18  2  0
  2 19  1  0
 19 20  2  0
 19 21  2  0
 19 22  1  0
 22 23  2  0
 23 24  1  0
 24 25  2  0
 25 26  1  0
 26 27  2  0
 18  3  1  0
 27 22  1  0
 17 12  1  0
  1 28  1  0
  1 29  1  0
  1 30  1  0
  4 31  1  0
  6 32  1  0
 10 33  1  0
 11 34  1  0
 11 35  1  0
 13 36  1  0
 14 37  1  0
 15 38  1  0
 17 39  1  0
 18 40  1  0
 23 41  1  0
 24 42  1  0
 25 43  1  0
 26 44  1  0
 27 45  1  0
M  END
$$$$
