
     RDKit          3D

 45 47  0  0  0  0  0  0  0  0999 V2000
    7.1881    1.4262    0.1068 C   0  0  0  0  0  0  0  0  0  0  0  0
    6.5603    0.3441    0.7823 O   0  0  0  0  0  0  0  0  0  0  0  0
    6.5532   -0.8651    0.0222 C   0  0  0  0  0  0  0  0  0  0  0  0
    5.5301   -0.8697   -1.1220 C   0  0  0  0  0  0  0  0  0  0  0  0
    4.1803   -0.5925   -0.6554 N   0  0  0  0  0  0  0  0  0  0  0  0
    3.5884    0.6376   -0.8580 C   0  0  0  0  0  0  0  0  0  0  0  0
    4.0792    1.5298   -1.5402 O   0  0  0  0  0  0  0  0  0  0  0  0
    2.2850    0.8641   -0.1719 C   0  0  0  0  0  0  0  0  0  0  0  0
    1.9447    2.1861    0.1727 C   0  0  0  0  0  0  0  0  0  0  0  0
    0.7331    2.4862    0.8164 C   0  0  0  0  0  0  0  0  0  0  0  0
   -0.1388    1.4289    1.0998 C   0  0  0  0  0  0  0  0  0  0  0  0
   -1.3683    1.4113    1.7063 N   0  0  0  0  0  0  0  0  0  0  0  0
   -1.7128    0.1360    1.6757 C   0  0  0  0  0  0  0  0  0  0  0  0
   -2.9561   -0.5032    2.1859 C   0  0  0  0  0  0  0  0  0  0  0  0
   -3.9826   -0.7401    1.1024 C   0  0  0  0  0  0  0  0  0  0  0  0
   -4.1501   -2.0113    0.5407 C   0  0  0  0  0  0  0  0  0  0  0  0
   -5.0938   -2.2166   -0.4688 C   0  0  0  0  0  0  0  0  0  0  0  0
   -5.8788   -1.1616   -0.9388 C   0  0  0  0  0  0  0  0  0  0  0  0
   -6.7602   -1.5014   -1.9279 O   0  0  0  0  0  0  0  0  0  0  0  0
   -7.5675   -0.4561   -2.4546 C   0  0  0  0  0  0  0  0  0  0  0  0
   -5.7110    0.1087   -0.3887 C   0  0  0  0  0  0  0  0  0  0  0  0
   -4.7679    0.3182    0.6238 C   0  0  0  0  0  0  0  0  0  0  0  0
   -0.7825   -0.6980    1.1071 O   0  0  0  0  0  0  0  0  0  0  0  0
    0.2245    0.1431    0.7340 C   0  0  0  0  0  0  0  0  0  0  0  0
    1.4111   -0.2023    0.0970 C   0  0  0  0  0  0  0  0  0  0  0  0
    7.1751    2.2953    0.7702 H   0  0  0  0  0  0  0  0  0  0  0  0
    6.6563    1.6875   -0.8105 H   0  0  0  0  0  0  0  0  0  0  0  0
    8.2298    1.1805   -0.1210 H   0  0  0  0  0  0  0  0  0  0  0  0
    6.2992   -1.6671    0.7246 H   0  0  0  0  0  0  0  0  0  0  0  0
    7.5594   -1.0775   -0.3575 H   0  0  0  0  0  0  0  0  0  0  0  0
    5.8105   -0.1473   -1.8942 H   0  0  0  0  0  0  0  0  0  0  0  0
    5.5084   -1.8624   -1.5834 H   0  0  0  0  0  0  0  0  0  0  0  0
    3.8211   -1.1872    0.0783 H   0  0  0  0  0  0  0  0  0  0  0  0
    2.6336    2.9980   -0.0601 H   0  0  0  0  0  0  0  0  0  0  0  0
    0.4746    3.5048    1.0840 H   0  0  0  0  0  0  0  0  0  0  0  0
   -2.7059   -1.4505    2.6795 H   0  0  0  0  0  0  0  0  0  0  0  0
   -3.3998    0.1291    2.9651 H   0  0  0  0  0  0  0  0  0  0  0  0
   -3.5477   -2.8513    0.8790 H   0  0  0  0  0  0  0  0  0  0  0  0
   -5.2163   -3.2085   -0.8970 H   0  0  0  0  0  0  0  0  0  0  0  0
   -8.2215   -0.0357   -1.6835 H   0  0  0  0  0  0  0  0  0  0  0  0
   -8.2052   -0.8862   -3.2330 H   0  0  0  0  0  0  0  0  0  0  0  0
   -6.9530    0.3216   -2.9201 H   0  0  0  0  0  0  0  0  0  0  0  0
   -6.2931    0.9600   -0.7250 H   0  0  0  0  0  0  0  0  0  0  0  0
   -4.6440    1.3198    1.0331 H   0  0  0  0  0  0  0  0  0  0  0  0
    1.6112   -1.2257   -0.1888 H   0  0  0  0  0  0  0  0  0  0  0  0
  1  2  1  0
  2  3  1  0
  3  4  1  0
  4  5  1  0
  5  6  1  0
  6  7  2  0
  6  8  1  0
  8  9  2  0
  9 10  1  0
 10 11  2  0
 11 12  1  0
 12 13  2  0
 13 14  1  0
 14 15  1  0
 15 16  2  0
 16 17  1  0
 17 18  2  0
 18 19  1  0
 19 20  1  0
 18 21  1  0
 21 22  2  0
 13 23  1  0
 23 24  1  0
 24 25  2  0
 25  8  1  0
 24 11  1  0
 22 15  1  0
  1 26  1  0
  1 27  1  0
  1 28  1  0
  3 29  1  0
  3 30  1  0
  4 31  1  0
  4 32  1  0
  5 33  1  0
  9 34  1  0
 10 35  1  0
 14 36  1  0
 14 37  1  0
 16 38  1  0
 17 39  1  0
 20 40  1  0
 20 41  1  0
 20 42  1  0
 21 43  1  0
 22 44  1  0
 25 45  1  0
M  END
$$$$
