
     RDKit          3D

 35 37  0  0  0  0  0  0  0  0999 V2000
   -6.8170    0.2889    0.6123 C   0  0  0  0  0  0  0  0  0  0  0  0
   -5.3473    0.1649    0.3418 C   0  0  0  0  0  0  0  0  0  0  0  0
   -4.4430    1.0800    0.8863 C   0  0  0  0  0  0  0  0  0  0  0  0
   -3.0705    0.9412    0.6555 C   0  0  0  0  0  0  0  0  0  0  0  0
   -2.5752   -0.1184   -0.1155 C   0  0  0  0  0  0  0  0  0  0  0  0
   -1.1770   -0.1838   -0.2929 N   0  0  0  0  0  0  0  0  0  0  0  0
   -0.4580   -1.0953   -1.0569 C   0  0  0  0  0  0  0  0  0  0  0  0
   -0.9557   -1.9773   -1.7501 O   0  0  0  0  0  0  0  0  0  0  0  0
    1.0130   -0.9038   -0.9791 C   0  0  0  0  0  0  0  0  0  0  0  0
    1.7746   -0.2157    0.0116 C   0  0  0  0  0  0  0  0  0  0  0  0
    3.1015   -0.3420   -0.3535 C   0  0  0  0  0  0  0  0  0  0  0  0
    4.3306    0.1446    0.2681 C   0  0  0  0  0  0  0  0  0  0  0  0
    4.3423    1.3639    0.9489 C   0  0  0  0  0  0  0  0  0  0  0  0
    5.5273    1.7942    1.5244 C   0  0  0  0  0  0  0  0  0  0  0  0
    6.6815    1.0989    1.4727 N   0  0  0  0  0  0  0  0  0  0  0  0
    6.6494   -0.0803    0.8196 C   0  0  0  0  0  0  0  0  0  0  0  0
    5.5157   -0.5929    0.2079 C   0  0  0  0  0  0  0  0  0  0  0  0
    3.0661   -1.0628   -1.5175 N   0  0  0  0  0  0  0  0  0  0  0  0
    1.8374   -1.4176   -1.9097 N   0  0  0  0  0  0  0  0  0  0  0  0
   -3.4782   -1.0408   -0.6432 C   0  0  0  0  0  0  0  0  0  0  0  0
   -4.8525   -0.9026   -0.4130 C   0  0  0  0  0  0  0  0  0  0  0  0
   -7.1038    1.3383    0.7384 H   0  0  0  0  0  0  0  0  0  0  0  0
   -7.4028   -0.1093   -0.2228 H   0  0  0  0  0  0  0  0  0  0  0  0
   -7.0778   -0.2609    1.5218 H   0  0  0  0  0  0  0  0  0  0  0  0
   -4.8003    1.9089    1.4931 H   0  0  0  0  0  0  0  0  0  0  0  0
   -2.3992    1.6765    1.0907 H   0  0  0  0  0  0  0  0  0  0  0  0
   -0.6501    0.5564    0.1448 H   0  0  0  0  0  0  0  0  0  0  0  0
    1.4098    0.2771    0.9014 H   0  0  0  0  0  0  0  0  0  0  0  0
    3.4559    1.9836    1.0255 H   0  0  0  0  0  0  0  0  0  0  0  0
    5.5802    2.7397    2.0568 H   0  0  0  0  0  0  0  0  0  0  0  0
    7.5895   -0.6249    0.8026 H   0  0  0  0  0  0  0  0  0  0  0  0
    5.5701   -1.5595   -0.2804 H   0  0  0  0  0  0  0  0  0  0  0  0
    3.8478   -1.3398   -2.1013 H   0  0  0  0  0  0  0  0  0  0  0  0
   -3.1519   -1.8883   -1.2379 H   0  0  0  0  0  0  0  0  0  0  0  0
   -5.5321   -1.6414   -0.8331 H   0  0  0  0  0  0  0  0  0  0  0  0
  1  2  1  0
  2  3  2  0
  3  4  1  0
  4  5  2  0
  5  6  1  0
  6  7  1  0
  7  8  2  0
  7  9  1  0
  9 10  1  0
 10 11  2  0
 11 12  1  0
 12 13  2  0
 13 14  1  0
 14 15  2  0
 15 16  1  0
 16 17  2  0
 11 18  1  0
 18 19  1  0
  5 20  1  0
 20 21  2  0
 21  2  1  0
 19  9  2  0
 17 12  1  0
  1 22  1  0
  1 23  1  0
  1 24  1  0
  3 25  1  0
  4 26  1  0
  6 27  1  0
 10 28  1  0
 13 29  1  0
 14 30  1  0
 16 31  1  0
 17 32  1  0
 18 33  1  0
 20 34  1  0
 21 35  1  0
M  END
$$$$
