
     RDKit          3D

 62 66  0  0  0  0  0  0  0  0999 V2000
    0.2647    0.5336    0.7406 O   0  0  0  0  0  0  0  0  0  0  0  0
    1.0554   -0.3889    0.5304 C   0  0  0  0  0  0  0  0  0  0  0  0
    0.5772   -1.8180    0.2136 C   0  0  0  0  0  0  0  0  0  0  0  0
   -0.8814   -1.9222    0.1674 N   0  0  0  0  0  0  0  0  0  0  0  0
   -1.5219   -2.3919    1.3106 C   0  0  0  0  0  0  0  0  0  0  0  0
   -0.9042   -2.8049    2.2966 O   0  0  0  0  0  0  0  0  0  0  0  0
   -3.0289   -2.5531    1.2250 C   0  0  0  0  0  0  0  0  0  0  0  0
   -3.6793   -1.5697    0.3770 N   0  0  0  0  0  0  0  0  0  0  0  0
   -4.9579   -1.1568    0.7655 C   0  0  0  0  0  0  0  0  0  0  0  0
   -5.6541   -1.8430    1.5107 O   0  0  0  0  0  0  0  0  0  0  0  0
   -5.2922    0.1071    0.3228 N   0  0  0  0  0  0  0  0  0  0  0  0
   -6.5141    0.7871    0.4800 C   0  0  0  0  0  0  0  0  0  0  0  0
   -6.5445    2.1401    0.1101 C   0  0  0  0  0  0  0  0  0  0  0  0
   -7.7223    2.8822    0.2267 C   0  0  0  0  0  0  0  0  0  0  0  0
   -8.8705    2.2695    0.7082 C   0  0  0  0  0  0  0  0  0  0  0  0
   -9.9999    2.9802    0.8211 F   0  0  0  0  0  0  0  0  0  0  0  0
   -8.8624    0.9287    1.0700 C   0  0  0  0  0  0  0  0  0  0  0  0
   -7.6836    0.1854    0.9532 C   0  0  0  0  0  0  0  0  0  0  0  0
   -3.0258   -1.2712   -0.8543 C   0  0  0  0  0  0  0  0  0  0  0  0
   -3.7511   -0.8386   -1.9784 C   0  0  0  0  0  0  0  0  0  0  0  0
   -3.1045   -0.5081   -3.1674 C   0  0  0  0  0  0  0  0  0  0  0  0
   -1.7236   -0.6110   -3.2505 C   0  0  0  0  0  0  0  0  0  0  0  0
   -0.9906   -1.0702   -2.1540 C   0  0  0  0  0  0  0  0  0  0  0  0
   -1.6258   -1.4306   -0.9519 C   0  0  0  0  0  0  0  0  0  0  0  0
    2.4304   -0.1834    0.5447 N   0  0  0  0  0  0  0  0  0  0  0  0
    3.4325   -1.2382    0.3536 C   0  0  0  0  0  0  0  0  0  0  0  0
    4.8564   -0.8210    0.7707 C   0  0  0  0  0  0  0  0  0  0  0  0
    5.2548    0.4276    0.1065 N   0  0  0  0  0  0  0  0  0  0  0  0
    6.5928    0.7962    0.0111 C   0  0  0  0  0  0  0  0  0  0  0  0
    7.0009    1.8361   -0.8433 C   0  0  0  0  0  0  0  0  0  0  0  0
    8.3429    2.2190   -0.9603 C   0  0  0  0  0  0  0  0  0  0  0  0
    9.3212    1.5621   -0.2238 C   0  0  0  0  0  0  0  0  0  0  0  0
    8.9538    0.5229    0.6224 C   0  0  0  0  0  0  0  0  0  0  0  0
    7.6082    0.1465    0.7322 C   0  0  0  0  0  0  0  0  0  0  0  0
    4.2165    1.4703   -0.0389 C   0  0  0  0  0  0  0  0  0  0  0  0
    2.9529    1.1638    0.7865 C   0  0  0  0  0  0  0  0  0  0  0  0
    1.0081   -2.1720   -0.7266 H   0  0  0  0  0  0  0  0  0  0  0  0
    0.9640   -2.4751    0.9992 H   0  0  0  0  0  0  0  0  0  0  0  0
   -3.2585   -3.5515    0.8359 H   0  0  0  0  0  0  0  0  0  0  0  0
   -3.4236   -2.4799    2.2446 H   0  0  0  0  0  0  0  0  0  0  0  0
   -4.5053    0.6553    0.0007 H   0  0  0  0  0  0  0  0  0  0  0  0
   -5.6525    2.6337   -0.2672 H   0  0  0  0  0  0  0  0  0  0  0  0
   -7.7496    3.9305   -0.0522 H   0  0  0  0  0  0  0  0  0  0  0  0
   -9.7701    0.4649    1.4423 H   0  0  0  0  0  0  0  0  0  0  0  0
   -7.7115   -0.8626    1.2359 H   0  0  0  0  0  0  0  0  0  0  0  0
   -4.8373   -0.7844   -1.9638 H   0  0  0  0  0  0  0  0  0  0  0  0
   -3.6803   -0.1759   -4.0273 H   0  0  0  0  0  0  0  0  0  0  0  0
   -1.2133   -0.3466   -4.1738 H   0  0  0  0  0  0  0  0  0  0  0  0
    0.0841   -1.1395   -2.2827 H   0  0  0  0  0  0  0  0  0  0  0  0
    3.4176   -1.4947   -0.7129 H   0  0  0  0  0  0  0  0  0  0  0  0
    3.1363   -2.1288    0.9156 H   0  0  0  0  0  0  0  0  0  0  0  0
    5.5304   -1.6427    0.5000 H   0  0  0  0  0  0  0  0  0  0  0  0
    4.8979   -0.6866    1.8587 H   0  0  0  0  0  0  0  0  0  0  0  0
    6.2734    2.3587   -1.4588 H   0  0  0  0  0  0  0  0  0  0  0  0
    8.6177    3.0274   -1.6334 H   0  0  0  0  0  0  0  0  0  0  0  0
   10.3636    1.8561   -0.3103 H   0  0  0  0  0  0  0  0  0  0  0  0
    9.7102    0.0012    1.2043 H   0  0  0  0  0  0  0  0  0  0  0  0
    7.3741   -0.6597    1.4215 H   0  0  0  0  0  0  0  0  0  0  0  0
    4.5888    2.4506    0.2827 H   0  0  0  0  0  0  0  0  0  0  0  0
    3.9433    1.5407   -1.0982 H   0  0  0  0  0  0  0  0  0  0  0  0
    3.1816    1.2240    1.8579 H   0  0  0  0  0  0  0  0  0  0  0  0
    2.1888    1.9188    0.5738 H   0  0  0  0  0  0  0  0  0  0  0  0
  1  2  2  0
  2  3  1  0
  3  4  1  0
  4  5  1  0
  5  6  2  0
  5  7  1  0
  7  8  1  0
  8  9  1  0
  9 10  2  0
  9 11  1  0
 11 12  1  0
 12 13  2  0
 13 14  1  0
 14 15  2  0
 15 16  1  0
 15 17  1  0
 17 18  2  0
  8 19  1  0
 19 20  2  0
 20 21  1  0
 21 22  2  0
 22 23  1  0
 23 24  2  0
  2 25  1  0
 25 26  1  0
 26 27  1  0
 27 28  1  0
 28 29  1  0
 29 30  2  0
 30 31  1  0
 31 32  2  0
 32 33  1  0
 33 34  2  0
 28 35  1  0
 35 36  1  0
 24  4  1  0
 36 25  1  0
 18 12  1  0
 24 19  1  0
 34 29  1  0
  3 37  1  0
  3 38  1  0
  7 39  1  0
  7 40  1  0
 11 41  1  0
 13 42  1  0
 14 43  1  0
 17 44  1  0
 18 45  1  0
 20 46  1  0
 21 47  1  0
 22 48  1  0
 23 49  1  0
 26 50  1  0
 26 51  1  0
 27 52  1  0
 27 53  1  0
 30 54  1  0
 31 55  1  0
 32 56  1  0
 33 57  1  0
 34 58  1  0
 35 59  1  0
 35 60  1  0
 36 61  1  0
 36 62  1  0
M  END
$$$$
