
     RDKit          3D

 47 49  0  0  0  0  0  0  0  0999 V2000
    3.6841    2.2782   -1.9697 C   0  0  0  0  0  0  0  0  0  0  0  0
    4.5716    2.3385   -0.8603 O   0  0  0  0  0  0  0  0  0  0  0  0
    3.9632    1.9007    0.3580 C   0  0  0  0  0  0  0  0  0  0  0  0
    4.4842    0.5250    0.7696 C   0  0  0  0  0  0  0  0  0  0  0  0
    3.8704   -0.5676    0.0285 N   0  0  0  0  0  0  0  0  0  0  0  0
    4.4793   -1.2452   -0.9972 C   0  0  0  0  0  0  0  0  0  0  0  0
    3.6167   -2.2251   -1.4302 C   0  0  0  0  0  0  0  0  0  0  0  0
    2.4413   -2.1493   -0.6357 C   0  0  0  0  0  0  0  0  0  0  0  0
    1.2416   -2.8867   -0.6024 C   0  0  0  0  0  0  0  0  0  0  0  0
    0.2503   -2.5568    0.3314 C   0  0  0  0  0  0  0  0  0  0  0  0
    0.4376   -1.4970    1.2236 C   0  0  0  0  0  0  0  0  0  0  0  0
   -0.6014   -1.1117    2.2222 C   0  0  0  0  0  0  0  0  0  0  0  0
   -0.2865   -0.4975    3.2359 O   0  0  0  0  0  0  0  0  0  0  0  0
   -1.9060   -1.4337    1.9091 N   0  0  0  0  0  0  0  0  0  0  0  0
   -3.0118   -0.9590    2.7226 C   0  0  0  0  0  0  0  0  0  0  0  0
   -3.3651    0.5084    2.4534 C   0  0  0  0  0  0  0  0  0  0  0  0
   -3.8152    0.7457    1.0294 C   0  0  0  0  0  0  0  0  0  0  0  0
   -5.1204    0.4242    0.6319 C   0  0  0  0  0  0  0  0  0  0  0  0
   -5.5220    0.6182   -0.6904 C   0  0  0  0  0  0  0  0  0  0  0  0
   -4.6223    1.1321   -1.6161 C   0  0  0  0  0  0  0  0  0  0  0  0
   -5.0577    1.3043   -2.8966 O   0  0  0  0  0  0  0  0  0  0  0  0
   -3.3226    1.4568   -1.2427 C   0  0  0  0  0  0  0  0  0  0  0  0
   -2.9203    1.2623    0.0802 C   0  0  0  0  0  0  0  0  0  0  0  0
    1.6356   -0.7640    1.2162 C   0  0  0  0  0  0  0  0  0  0  0  0
    2.6212   -1.1038    0.2742 C   0  0  0  0  0  0  0  0  0  0  0  0
    4.2327    2.5843   -2.8644 H   0  0  0  0  0  0  0  0  0  0  0  0
    2.8482    2.9689   -1.8221 H   0  0  0  0  0  0  0  0  0  0  0  0
    3.3084    1.2634   -2.1217 H   0  0  0  0  0  0  0  0  0  0  0  0
    2.8689    1.9372    0.3008 H   0  0  0  0  0  0  0  0  0  0  0  0
    4.2707    2.6222    1.1229 H   0  0  0  0  0  0  0  0  0  0  0  0
    4.2812    0.3397    1.8302 H   0  0  0  0  0  0  0  0  0  0  0  0
    5.5676    0.4582    0.6171 H   0  0  0  0  0  0  0  0  0  0  0  0
    5.4708   -0.9738   -1.3370 H   0  0  0  0  0  0  0  0  0  0  0  0
    3.8129   -2.9274   -2.2296 H   0  0  0  0  0  0  0  0  0  0  0  0
    1.0903   -3.7149   -1.2893 H   0  0  0  0  0  0  0  0  0  0  0  0
   -0.6510   -3.1625    0.3597 H   0  0  0  0  0  0  0  0  0  0  0  0
   -2.1266   -1.6826    0.9536 H   0  0  0  0  0  0  0  0  0  0  0  0
   -2.7455   -1.0817    3.7784 H   0  0  0  0  0  0  0  0  0  0  0  0
   -3.8651   -1.6128    2.5119 H   0  0  0  0  0  0  0  0  0  0  0  0
   -4.1670    0.8203    3.1342 H   0  0  0  0  0  0  0  0  0  0  0  0
   -2.5082    1.1547    2.6804 H   0  0  0  0  0  0  0  0  0  0  0  0
   -5.8331    0.0225    1.3484 H   0  0  0  0  0  0  0  0  0  0  0  0
   -6.5344    0.3710   -0.9969 H   0  0  0  0  0  0  0  0  0  0  0  0
   -4.3388    1.6986   -3.4170 H   0  0  0  0  0  0  0  0  0  0  0  0
   -2.6135    1.8583   -1.9594 H   0  0  0  0  0  0  0  0  0  0  0  0
   -1.9017    1.5137    0.3699 H   0  0  0  0  0  0  0  0  0  0  0  0
    1.7871    0.0456    1.9247 H   0  0  0  0  0  0  0  0  0  0  0  0
  1  2  1  0
  2  3  1  0
  3  4  1  0
  4  5  1  0
  5  6  1  0
  6  7  2  0
  7  8  1  0
  8  9  2  0
  9 10  1  0
 10 11  2  0
 11 12  1  0
 12 13  2  0
 12 14  1  0
 14 15  1  0
 15 16  1  0
 16 17  1  0
 17 18  2  0
 18 19  1  0
 19 20  2  0
 20 21  1  0
 20 22  1  0
 22 23  2  0
 11 24  1  0
 24 25  2  0
 25  5  1  0
 25  8  1  0
 23 17  1  0
  1 26  1  0
  1 27  1  0
  1 28  1  0
  3 29  1  0
  3 30  1  0
  4 31  1  0
  4 32  1  0
  6 33  1  0
  7 34  1  0
  9 35  1  0
 10 36  1  0
 14 37  1  0
 15 38  1  0
 15 39  1  0
 16 40  1  0
 16 41  1  0
 18 42  1  0
 19 43  1  0
 21 44  1  0
 22 45  1  0
 23 46  1  0
 24 47  1  0
M  END
$$$$
