
     RDKit          3D

 35 38  0  0  0  0  0  0  0  0999 V2000
   -4.1114    1.8568   -0.1398 C   0  0  0  0  0  0  0  0  0  0  0  0
   -3.0827    0.8160   -0.1647 N   0  0  0  0  0  0  0  0  0  0  0  0
   -1.7462    1.1104   -0.3808 C   0  0  0  0  0  0  0  0  0  0  0  0
   -0.7325    0.2322   -0.4068 C   0  0  0  0  0  0  0  0  0  0  0  0
    0.6017    0.6684   -0.6205 C   0  0  0  0  0  0  0  0  0  0  0  0
    1.7024    0.2119   -0.0517 N   0  0  0  0  0  0  0  0  0  0  0  0
    2.7178    0.9805   -0.5798 C   0  0  0  0  0  0  0  0  0  0  0  0
    4.1289    0.8042   -0.2185 C   0  0  0  0  0  0  0  0  0  0  0  0
    5.1334    1.5074   -0.8838 C   0  0  0  0  0  0  0  0  0  0  0  0
    6.4606    1.3091   -0.5074 C   0  0  0  0  0  0  0  0  0  0  0  0
    6.7512    0.4188    0.5185 C   0  0  0  0  0  0  0  0  0  0  0  0
    5.6986   -0.2389    1.1308 C   0  0  0  0  0  0  0  0  0  0  0  0
    4.4041   -0.0648    0.7899 N   0  0  0  0  0  0  0  0  0  0  0  0
    2.2787    1.9101   -1.4433 N   0  0  0  0  0  0  0  0  0  0  0  0
    0.9062    1.7184   -1.4688 O   0  0  0  0  0  0  0  0  0  0  0  0
   -1.0662   -1.2012   -0.2204 C   0  0  0  0  0  0  0  0  0  0  0  0
   -0.2386   -2.0971   -0.3515 O   0  0  0  0  0  0  0  0  0  0  0  0
   -2.4800   -1.5367    0.0974 C   0  0  0  0  0  0  0  0  0  0  0  0
   -2.8101   -2.8750    0.3635 C   0  0  0  0  0  0  0  0  0  0  0  0
   -4.1250   -3.2235    0.6542 C   0  0  0  0  0  0  0  0  0  0  0  0
   -5.1067   -2.2386    0.6766 C   0  0  0  0  0  0  0  0  0  0  0  0
   -4.7772   -0.9038    0.4087 C   0  0  0  0  0  0  0  0  0  0  0  0
   -3.4582   -0.5187    0.1127 C   0  0  0  0  0  0  0  0  0  0  0  0
   -4.9007    1.6459   -0.8700 H   0  0  0  0  0  0  0  0  0  0  0  0
   -3.6968    2.8379   -0.3993 H   0  0  0  0  0  0  0  0  0  0  0  0
   -4.5505    1.9482    0.8598 H   0  0  0  0  0  0  0  0  0  0  0  0
   -1.5590    2.1734   -0.5217 H   0  0  0  0  0  0  0  0  0  0  0  0
    4.8963    2.1986   -1.6867 H   0  0  0  0  0  0  0  0  0  0  0  0
    7.2590    1.8444   -1.0136 H   0  0  0  0  0  0  0  0  0  0  0  0
    7.7731    0.2400    0.8336 H   0  0  0  0  0  0  0  0  0  0  0  0
    5.8715   -0.9463    1.9370 H   0  0  0  0  0  0  0  0  0  0  0  0
   -2.0401   -3.6440    0.3436 H   0  0  0  0  0  0  0  0  0  0  0  0
   -4.3811   -4.2594    0.8613 H   0  0  0  0  0  0  0  0  0  0  0  0
   -6.1362   -2.5064    0.9033 H   0  0  0  0  0  0  0  0  0  0  0  0
   -5.5843   -0.1781    0.4409 H   0  0  0  0  0  0  0  0  0  0  0  0
  1  2  1  0
  2  3  1  0
  3  4  2  0
  4  5  1  0
  5  6  2  0
  6  7  1  0
  7  8  1  0
  8  9  2  0
  9 10  1  0
 10 11  2  0
 11 12  1  0
 12 13  2  0
  7 14  2  0
 14 15  1  0
  4 16  1  0
 16 17  2  0
 16 18  1  0
 18 19  2  0
 19 20  1  0
 20 21  2  0
 21 22  1  0
 22 23  2  0
 23  2  1  0
 15  5  1  0
 23 18  1  0
 13  8  1  0
  1 24  1  0
  1 25  1  0
  1 26  1  0
  3 27  1  0
  9 28  1  0
 10 29  1  0
 11 30  1  0
 12 31  1  0
 19 32  1  0
 20 33  1  0
 21 34  1  0
 22 35  1  0
M  END
$$$$
