
     RDKit          3D

 52 54  0  0  0  0  0  0  0  0999 V2000
   -7.8092   -1.0502   -0.0021 C   0  0  0  0  0  0  0  0  0  0  0  0
   -6.6984   -1.9143    0.2033 O   0  0  0  0  0  0  0  0  0  0  0  0
   -5.4732   -1.3248    0.3398 C   0  0  0  0  0  0  0  0  0  0  0  0
   -5.2125    0.0415    0.3243 C   0  0  0  0  0  0  0  0  0  0  0  0
   -3.9020    0.5162    0.4906 C   0  0  0  0  0  0  0  0  0  0  0  0
   -2.8172   -0.3564    0.6683 C   0  0  0  0  0  0  0  0  0  0  0  0
   -1.4930    0.1673    0.8874 N   0  0  0  0  0  0  0  0  0  0  0  0
   -0.5726   -0.6129    1.7140 C   0  0  0  0  0  0  0  0  0  0  0  0
   -1.0753    1.3600    0.2756 C   0  0  0  0  0  0  0  0  0  0  0  0
   -1.7135    2.0767   -0.4892 O   0  0  0  0  0  0  0  0  0  0  0  0
    0.3462    1.7933    0.5222 C   0  0  0  0  0  0  0  0  0  0  0  0
    1.2826    1.1409   -0.0955 N   0  0  0  0  0  0  0  0  0  0  0  0
    2.6002    1.5220    0.0743 N   0  0  0  0  0  0  0  0  0  0  0  0
    3.5291    0.6247   -0.5792 C   0  0  0  0  0  0  0  0  0  0  0  0
    4.9206    0.7878   -0.5427 C   0  0  0  0  0  0  0  0  0  0  0  0
    5.7846   -0.1111   -1.1884 C   0  0  0  0  0  0  0  0  0  0  0  0
    5.2832   -1.2005   -1.9010 C   0  0  0  0  0  0  0  0  0  0  0  0
    6.2117   -2.1741   -2.5614 C   0  0  0  0  0  0  0  0  0  0  0  0
    3.9036   -1.3919   -1.9386 C   0  0  0  0  0  0  0  0  0  0  0  0
    3.0453   -0.4913   -1.2935 C   0  0  0  0  0  0  0  0  0  0  0  0
    2.9784    2.6875    0.7815 C   0  0  0  0  0  0  0  0  0  0  0  0
    4.1375    3.0678    0.9571 O   0  0  0  0  0  0  0  0  0  0  0  0
    1.9309    3.4225    1.3382 N   0  0  0  0  0  0  0  0  0  0  0  0
    2.2666    4.5870    2.1332 C   0  0  0  0  0  0  0  0  0  0  0  0
    0.6517    2.9291    1.4353 C   0  0  0  0  0  0  0  0  0  0  0  0
   -0.2100    3.3002    2.2204 O   0  0  0  0  0  0  0  0  0  0  0  0
   -3.0998   -1.7365    0.6440 C   0  0  0  0  0  0  0  0  0  0  0  0
   -2.1007   -2.6775    0.7357 O   0  0  0  0  0  0  0  0  0  0  0  0
   -1.7589   -3.1543   -0.5685 C   0  0  0  0  0  0  0  0  0  0  0  0
   -4.4115   -2.2107    0.5078 C   0  0  0  0  0  0  0  0  0  0  0  0
   -7.6988   -0.4793   -0.9300 H   0  0  0  0  0  0  0  0  0  0  0  0
   -7.9576   -0.3851    0.8541 H   0  0  0  0  0  0  0  0  0  0  0  0
   -8.7032   -1.6732   -0.0979 H   0  0  0  0  0  0  0  0  0  0  0  0
   -6.0024    0.7755    0.1996 H   0  0  0  0  0  0  0  0  0  0  0  0
   -3.7645    1.5950    0.5166 H   0  0  0  0  0  0  0  0  0  0  0  0
   -1.1135   -1.1958    2.4660 H   0  0  0  0  0  0  0  0  0  0  0  0
    0.1013    0.0481    2.2674 H   0  0  0  0  0  0  0  0  0  0  0  0
    0.0317   -1.2586    1.0694 H   0  0  0  0  0  0  0  0  0  0  0  0
    5.3963    1.6061   -0.0149 H   0  0  0  0  0  0  0  0  0  0  0  0
    6.8584    0.0563   -1.1261 H   0  0  0  0  0  0  0  0  0  0  0  0
    6.5134   -2.9471   -1.8481 H   0  0  0  0  0  0  0  0  0  0  0  0
    7.1071   -1.6662   -2.9351 H   0  0  0  0  0  0  0  0  0  0  0  0
    5.7300   -2.6544   -3.4197 H   0  0  0  0  0  0  0  0  0  0  0  0
    3.4787   -2.2382   -2.4729 H   0  0  0  0  0  0  0  0  0  0  0  0
    1.9779   -0.6864   -1.3670 H   0  0  0  0  0  0  0  0  0  0  0  0
    1.3878    5.2199    2.2897 H   0  0  0  0  0  0  0  0  0  0  0  0
    2.6442    4.2508    3.1041 H   0  0  0  0  0  0  0  0  0  0  0  0
    3.0419    5.1767    1.6347 H   0  0  0  0  0  0  0  0  0  0  0  0
   -2.5541   -3.7896   -0.9725 H   0  0  0  0  0  0  0  0  0  0  0  0
   -1.5407   -2.3293   -1.2563 H   0  0  0  0  0  0  0  0  0  0  0  0
   -0.8546   -3.7630   -0.4733 H   0  0  0  0  0  0  0  0  0  0  0  0
   -4.6037   -3.2801    0.5213 H   0  0  0  0  0  0  0  0  0  0  0  0
  1  2  1  0
  2  3  1  0
  3  4  2  0
  4  5  1  0
  5  6  2  0
  6  7  1  0
  7  8  1  0
  7  9  1  0
  9 10  2  0
  9 11  1  0
 11 12  2  0
 12 13  1  0
 13 14  1  0
 14 15  2  0
 15 16  1  0
 16 17  2  0
 17 18  1  0
 17 19  1  0
 19 20  2  0
 13 21  1  0
 21 22  2  0
 21 23  1  0
 23 24  1  0
 23 25  1  0
 25 26  2  0
  6 27  1  0
 27 28  1  0
 28 29  1  0
 27 30  2  0
 30  3  1  0
 25 11  1  0
 20 14  1  0
  1 31  1  0
  1 32  1  0
  1 33  1  0
  4 34  1  0
  5 35  1  0
  8 36  1  0
  8 37  1  0
  8 38  1  0
 15 39  1  0
 16 40  1  0
 18 41  1  0
 18 42  1  0
 18 43  1  0
 19 44  1  0
 20 45  1  0
 24 46  1  0
 24 47  1  0
 24 48  1  0
 29 49  1  0
 29 50  1  0
 29 51  1  0
 30 52  1  0
M  END
$$$$
