
     RDKit          3D

 50 51  0  0  0  0  0  0  0  0999 V2000
    5.5331    0.8829    3.3217 C   0  0  0  0  0  0  0  0  0  0  0  0
    4.2747    1.0060    2.6702 O   0  0  0  0  0  0  0  0  0  0  0  0
    4.1655    0.4610    1.4216 C   0  0  0  0  0  0  0  0  0  0  0  0
    5.1597   -0.2444    0.7450 C   0  0  0  0  0  0  0  0  0  0  0  0
    4.9128   -0.7525   -0.5345 C   0  0  0  0  0  0  0  0  0  0  0  0
    3.6763   -0.5464   -1.1537 C   0  0  0  0  0  0  0  0  0  0  0  0
    3.4530   -1.1247   -2.3718 O   0  0  0  0  0  0  0  0  0  0  0  0
    4.1416   -0.4199   -3.4081 C   0  0  0  0  0  0  0  0  0  0  0  0
    2.6699    0.1335   -0.4693 C   0  0  0  0  0  0  0  0  0  0  0  0
    1.0832    0.4576   -1.1925 S   0  0  0  0  0  6  0  0  0  0  0  0
    1.1714    0.4136   -2.6368 O   0  0  0  0  0  0  0  0  0  0  0  0
    0.5533    1.6435   -0.5465 O   0  0  0  0  0  0  0  0  0  0  0  0
    0.1266   -0.8694   -0.6746 N   0  0  0  0  0  0  0  0  0  0  0  0
    0.5432   -2.1883   -1.2002 C   0  0  0  0  0  0  0  0  0  0  0  0
   -1.3417   -0.6348   -0.8424 C   0  0  0  0  0  0  0  0  0  0  0  0
   -1.9562   -0.2405    0.5032 C   0  0  0  0  0  0  0  0  0  0  0  0
   -3.4244    0.0115    0.3963 C   0  0  0  0  0  0  0  0  0  0  0  0
   -4.4817   -0.9049    0.6495 C   0  0  0  0  0  0  0  0  0  0  0  0
   -4.3840   -2.3192    1.0882 C   0  0  0  0  0  0  0  0  0  0  0  0
   -5.6796   -0.3484    0.4475 N   0  0  0  0  0  0  0  0  0  0  0  0
   -5.4028    0.9124    0.0775 N   0  0  0  0  0  0  0  0  0  0  0  0
   -6.4891    1.8182   -0.2143 C   0  0  0  0  0  0  0  0  0  0  0  0
   -4.0605    1.1841    0.0234 C   0  0  0  0  0  0  0  0  0  0  0  0
   -3.5184    2.5110   -0.3678 C   0  0  0  0  0  0  0  0  0  0  0  0
    2.9230    0.6471    0.8113 C   0  0  0  0  0  0  0  0  0  0  0  0
    5.7784   -0.1678    3.5096 H   0  0  0  0  0  0  0  0  0  0  0  0
    6.3246    1.3779    2.7489 H   0  0  0  0  0  0  0  0  0  0  0  0
    5.4586    1.3859    4.2907 H   0  0  0  0  0  0  0  0  0  0  0  0
    6.1339   -0.4264    1.1867 H   0  0  0  0  0  0  0  0  0  0  0  0
    5.6868   -1.3250   -1.0396 H   0  0  0  0  0  0  0  0  0  0  0  0
    3.9869    0.6630   -3.3370 H   0  0  0  0  0  0  0  0  0  0  0  0
    3.7388   -0.7586   -4.3675 H   0  0  0  0  0  0  0  0  0  0  0  0
    5.2114   -0.6526   -3.3878 H   0  0  0  0  0  0  0  0  0  0  0  0
    1.5469   -2.4449   -0.8553 H   0  0  0  0  0  0  0  0  0  0  0  0
   -0.1213   -2.9695   -0.8148 H   0  0  0  0  0  0  0  0  0  0  0  0
    0.5031   -2.2111   -2.2929 H   0  0  0  0  0  0  0  0  0  0  0  0
   -1.5273    0.1365   -1.6000 H   0  0  0  0  0  0  0  0  0  0  0  0
   -1.8339   -1.5396   -1.2212 H   0  0  0  0  0  0  0  0  0  0  0  0
   -1.4611    0.6513    0.9045 H   0  0  0  0  0  0  0  0  0  0  0  0
   -1.7696   -1.0355    1.2363 H   0  0  0  0  0  0  0  0  0  0  0  0
   -4.0441   -2.3702    2.1272 H   0  0  0  0  0  0  0  0  0  0  0  0
   -5.3504   -2.8295    1.0205 H   0  0  0  0  0  0  0  0  0  0  0  0
   -3.6714   -2.8672    0.4632 H   0  0  0  0  0  0  0  0  0  0  0  0
   -6.3897    2.1543   -1.2490 H   0  0  0  0  0  0  0  0  0  0  0  0
   -6.4281    2.6635    0.4755 H   0  0  0  0  0  0  0  0  0  0  0  0
   -7.4433    1.3010   -0.0830 H   0  0  0  0  0  0  0  0  0  0  0  0
   -3.8482    2.7799   -1.3764 H   0  0  0  0  0  0  0  0  0  0  0  0
   -3.8561    3.2854    0.3286 H   0  0  0  0  0  0  0  0  0  0  0  0
   -2.4243    2.5133   -0.3646 H   0  0  0  0  0  0  0  0  0  0  0  0
    2.1501    1.1969    1.3461 H   0  0  0  0  0  0  0  0  0  0  0  0
  1  2  1  0
  2  3  1  0
  3  4  2  0
  4  5  1  0
  5  6  2  0
  6  7  1  0
  7  8  1  0
  6  9  1  0
  9 10  1  0
 10 11  2  0
 10 12  2  0
 10 13  1  0
 13 14  1  0
 13 15  1  0
 15 16  1  0
 16 17  1  0
 17 18  1  0
 18 19  1  0
 18 20  2  0
 20 21  1  0
 21 22  1  0
 21 23  1  0
 23 24  1  0
  9 25  2  0
 25  3  1  0
 23 17  2  0
  1 26  1  0
  1 27  1  0
  1 28  1  0
  4 29  1  0
  5 30  1  0
  8 31  1  0
  8 32  1  0
  8 33  1  0
 14 34  1  0
 14 35  1  0
 14 36  1  0
 15 37  1  0
 15 38  1  0
 16 39  1  0
 16 40  1  0
 19 41  1  0
 19 42  1  0
 19 43  1  0
 22 44  1  0
 22 45  1  0
 22 46  1  0
 24 47  1  0
 24 48  1  0
 24 49  1  0
 25 50  1  0
M  END
$$$$
