
     RDKit          3D

 64 68  0  0  0  0  0  0  0  0999 V2000
   -7.8694    3.5720   -2.0920 C   0  0  0  0  0  0  0  0  0  0  0  0
   -7.0573    2.4268   -1.5631 C   0  0  0  0  0  0  0  0  0  0  0  0
   -7.6414    1.1686   -1.3774 C   0  0  0  0  0  0  0  0  0  0  0  0
   -6.8909    0.1076   -0.8640 C   0  0  0  0  0  0  0  0  0  0  0  0
   -5.5534    0.3039   -0.4923 C   0  0  0  0  0  0  0  0  0  0  0  0
   -4.8028   -0.7961    0.0075 N   0  0  0  0  0  0  0  0  0  0  0  0
   -5.1441   -2.0597   -0.3961 N   0  0  0  0  0  0  0  0  0  0  0  0
   -4.0481   -2.7964   -0.1656 C   0  0  0  0  0  0  0  0  0  0  0  0
   -3.9750   -4.2118   -0.5931 C   0  0  0  0  0  0  0  0  0  0  0  0
   -3.0948   -2.0537    0.5411 C   0  0  0  0  0  0  0  0  0  0  0  0
   -1.8599   -2.4861    1.0133 N   0  0  0  0  0  0  0  0  0  0  0  0
   -1.2771   -1.6227    1.7983 C   0  0  0  0  0  0  0  0  0  0  0  0
    0.0946   -1.9552    2.3420 C   0  0  0  0  0  0  0  0  0  0  0  0
    1.1633   -1.2305    1.5308 C   0  0  0  0  0  0  0  0  0  0  0  0
    2.5675   -1.6144    1.9605 C   0  0  0  0  0  0  0  0  0  0  0  0
    2.7624   -2.3774    2.9066 O   0  0  0  0  0  0  0  0  0  0  0  0
    3.6120   -1.0603    1.2374 N   0  0  0  0  0  0  0  0  0  0  0  0
    3.4748   -0.1301    0.1113 C   0  0  0  0  0  0  0  0  0  0  0  0
    4.6010    0.9213    0.0553 C   0  0  0  0  0  0  0  0  0  0  0  0
    5.9421    0.3213    0.1428 N   0  0  0  0  0  0  0  0  0  0  0  0
    6.9143    0.7702   -0.7498 C   0  0  0  0  0  0  0  0  0  0  0  0
    7.0633    2.1342   -1.0160 C   0  0  0  0  0  0  0  0  0  0  0  0
    8.0422    2.5739   -1.9070 C   0  0  0  0  0  0  0  0  0  0  0  0
    8.8677    1.6433   -2.5152 C   0  0  0  0  0  0  0  0  0  0  0  0
    8.6800    0.3131   -2.1929 C   0  0  0  0  0  0  0  0  0  0  0  0
    7.7364   -0.1310   -1.3315 N   0  0  0  0  0  0  0  0  0  0  0  0
    6.0115   -1.1060    0.4987 C   0  0  0  0  0  0  0  0  0  0  0  0
    4.9851   -1.4378    1.5954 C   0  0  0  0  0  0  0  0  0  0  0  0
   -1.8626   -0.2549    2.2075 C   0  0  0  0  0  0  0  0  0  0  0  0
   -1.2216    0.4481    2.9819 O   0  0  0  0  0  0  0  0  0  0  0  0
   -3.1014    0.1040    1.6615 N   0  0  0  0  0  0  0  0  0  0  0  0
   -3.7660    1.2682    2.2113 C   0  0  0  0  0  0  0  0  0  0  0  0
   -3.6443   -0.8234    0.7795 C   0  0  0  0  0  0  0  0  0  0  0  0
   -4.9615    1.5556   -0.6917 C   0  0  0  0  0  0  0  0  0  0  0  0
   -5.7150    2.6131   -1.2117 C   0  0  0  0  0  0  0  0  0  0  0  0
   -8.2818    4.1527   -1.2614 H   0  0  0  0  0  0  0  0  0  0  0  0
   -8.6954    3.2132   -2.7151 H   0  0  0  0  0  0  0  0  0  0  0  0
   -7.2541    4.2285   -2.7160 H   0  0  0  0  0  0  0  0  0  0  0  0
   -8.6860    1.0016   -1.6358 H   0  0  0  0  0  0  0  0  0  0  0  0
   -7.3673   -0.8644   -0.7407 H   0  0  0  0  0  0  0  0  0  0  0  0
   -3.9511   -4.8721    0.2796 H   0  0  0  0  0  0  0  0  0  0  0  0
   -4.8375   -4.4917   -1.2069 H   0  0  0  0  0  0  0  0  0  0  0  0
   -3.0703   -4.3879   -1.1839 H   0  0  0  0  0  0  0  0  0  0  0  0
    0.2421   -3.0409    2.2839 H   0  0  0  0  0  0  0  0  0  0  0  0
    0.1471   -1.6839    3.4025 H   0  0  0  0  0  0  0  0  0  0  0  0
    1.0453   -0.1490    1.6587 H   0  0  0  0  0  0  0  0  0  0  0  0
    1.0429   -1.4706    0.4677 H   0  0  0  0  0  0  0  0  0  0  0  0
    2.5119    0.3838    0.1414 H   0  0  0  0  0  0  0  0  0  0  0  0
    3.4902   -0.7408   -0.7991 H   0  0  0  0  0  0  0  0  0  0  0  0
    4.4643    1.4987   -0.8677 H   0  0  0  0  0  0  0  0  0  0  0  0
    4.4868    1.6140    0.8980 H   0  0  0  0  0  0  0  0  0  0  0  0
    6.4378    2.8654   -0.5157 H   0  0  0  0  0  0  0  0  0  0  0  0
    8.1594    3.6339   -2.1122 H   0  0  0  0  0  0  0  0  0  0  0  0
    9.6423    1.9439   -3.2108 H   0  0  0  0  0  0  0  0  0  0  0  0
    9.3033   -0.4611   -2.6308 H   0  0  0  0  0  0  0  0  0  0  0  0
    7.0100   -1.3596    0.8765 H   0  0  0  0  0  0  0  0  0  0  0  0
    5.8098   -1.7267   -0.3845 H   0  0  0  0  0  0  0  0  0  0  0  0
    5.2304   -0.8914    2.5149 H   0  0  0  0  0  0  0  0  0  0  0  0
    5.0192   -2.5088    1.8272 H   0  0  0  0  0  0  0  0  0  0  0  0
   -3.5461    1.3530    3.2806 H   0  0  0  0  0  0  0  0  0  0  0  0
   -3.3856    2.1650    1.7163 H   0  0  0  0  0  0  0  0  0  0  0  0
   -4.8502    1.1919    2.1038 H   0  0  0  0  0  0  0  0  0  0  0  0
   -3.9071    1.7238   -0.4959 H   0  0  0  0  0  0  0  0  0  0  0  0
   -5.2418    3.5819   -1.3586 H   0  0  0  0  0  0  0  0  0  0  0  0
  1  2  1  0
  2  3  2  0
  3  4  1  0
  4  5  2  0
  5  6  1  0
  6  7  1  0
  7  8  2  0
  8  9  1  0
  8 10  1  0
 10 11  1  0
 11 12  2  0
 12 13  1  0
 13 14  1  0
 14 15  1  0
 15 16  2  0
 15 17  1  0
 17 18  1  0
 18 19  1  0
 19 20  1  0
 20 21  1  0
 21 22  2  0
 22 23  1  0
 23 24  2  0
 24 25  1  0
 25 26  2  0
 20 27  1  0
 27 28  1  0
 12 29  1  0
 29 30  2  0
 29 31  1  0
 31 32  1  0
 31 33  1  0
  5 34  1  0
 34 35  2  0
 35  2  1  0
 33  6  1  0
 33 10  2  0
 28 17  1  0
 26 21  1  0
  1 36  1  0
  1 37  1  0
  1 38  1  0
  3 39  1  0
  4 40  1  0
  9 41  1  0
  9 42  1  0
  9 43  1  0
 13 44  1  0
 13 45  1  0
 14 46  1  0
 14 47  1  0
 18 48  1  0
 18 49  1  0
 19 50  1  0
 19 51  1  0
 22 52  1  0
 23 53  1  0
 24 54  1  0
 25 55  1  0
 27 56  1  0
 27 57  1  0
 28 58  1  0
 28 59  1  0
 32 60  1  0
 32 61  1  0
 32 62  1  0
 34 63  1  0
 35 64  1  0
M  END
$$$$
