
     RDKit          3D

 43 45  0  0  0  0  0  0  0  0999 V2000
    5.9836    2.1692   -0.4450 C   0  0  0  0  0  0  0  0  0  0  0  0
    5.1145    1.1195    0.2266 C   0  0  0  0  0  0  0  0  0  0  0  0
    4.1398    0.4871   -0.7587 C   0  0  0  0  0  0  0  0  0  0  0  0
    3.3080   -0.5023   -0.1088 N   0  0  0  0  0  0  0  0  0  0  0  0
    2.5794   -1.4124   -0.8504 C   0  0  0  0  0  0  0  0  0  0  0  0
    2.6808   -1.5384   -2.0682 O   0  0  0  0  0  0  0  0  0  0  0  0
    1.5864   -2.2304   -0.0265 C   0  0  0  0  0  0  0  0  0  0  0  0
    0.3559   -1.4777    0.1906 N   0  0  0  0  0  0  0  0  0  0  0  0
    0.3269   -0.6122    1.2837 C   0  0  0  0  0  0  0  0  0  0  0  0
    1.3407   -0.4362    1.9610 O   0  0  0  0  0  0  0  0  0  0  0  0
   -0.8342    0.0381    1.5943 N   0  0  0  0  0  0  0  0  0  0  0  0
   -1.8728   -0.0342    0.8250 C   0  0  0  0  0  0  0  0  0  0  0  0
   -3.0971    0.6614    1.2905 C   0  0  0  0  0  0  0  0  0  0  0  0
   -4.2699   -0.0591    1.5411 C   0  0  0  0  0  0  0  0  0  0  0  0
   -5.4060    0.6114    1.9955 C   0  0  0  0  0  0  0  0  0  0  0  0
   -5.3634    1.9899    2.2116 C   0  0  0  0  0  0  0  0  0  0  0  0
   -4.1836    2.7013    1.9847 C   0  0  0  0  0  0  0  0  0  0  0  0
   -3.0446    2.0371    1.5296 C   0  0  0  0  0  0  0  0  0  0  0  0
   -1.8660   -0.7690   -0.4588 C   0  0  0  0  0  0  0  0  0  0  0  0
   -2.9251   -0.7114   -1.3765 C   0  0  0  0  0  0  0  0  0  0  0  0
   -2.8537   -1.4291   -2.5681 C   0  0  0  0  0  0  0  0  0  0  0  0
   -1.7232   -2.1883   -2.8492 C   0  0  0  0  0  0  0  0  0  0  0  0
   -0.6574   -2.2256   -1.9449 C   0  0  0  0  0  0  0  0  0  0  0  0
   -0.7149   -1.5112   -0.7397 C   0  0  0  0  0  0  0  0  0  0  0  0
    6.5674    1.7316   -1.2612 H   0  0  0  0  0  0  0  0  0  0  0  0
    6.6813    2.6028    0.2781 H   0  0  0  0  0  0  0  0  0  0  0  0
    5.3725    2.9792   -0.8563 H   0  0  0  0  0  0  0  0  0  0  0  0
    4.5613    1.5816    1.0530 H   0  0  0  0  0  0  0  0  0  0  0  0
    5.7530    0.3451    0.6682 H   0  0  0  0  0  0  0  0  0  0  0  0
    4.6777    0.0114   -1.5870 H   0  0  0  0  0  0  0  0  0  0  0  0
    3.4725    1.2448   -1.1857 H   0  0  0  0  0  0  0  0  0  0  0  0
    2.9216   -0.2669    0.8077 H   0  0  0  0  0  0  0  0  0  0  0  0
    1.3948   -3.1938   -0.5094 H   0  0  0  0  0  0  0  0  0  0  0  0
    2.0497   -2.4769    0.9375 H   0  0  0  0  0  0  0  0  0  0  0  0
   -4.3004   -1.1368    1.4020 H   0  0  0  0  0  0  0  0  0  0  0  0
   -6.3214    0.0590    2.1938 H   0  0  0  0  0  0  0  0  0  0  0  0
   -6.2478    2.5093    2.5726 H   0  0  0  0  0  0  0  0  0  0  0  0
   -4.1482    3.7711    2.1738 H   0  0  0  0  0  0  0  0  0  0  0  0
   -2.1204    2.5873    1.3703 H   0  0  0  0  0  0  0  0  0  0  0  0
   -3.8067   -0.1040   -1.1931 H   0  0  0  0  0  0  0  0  0  0  0  0
   -3.6725   -1.3857   -3.2822 H   0  0  0  0  0  0  0  0  0  0  0  0
   -1.6567   -2.7377   -3.7855 H   0  0  0  0  0  0  0  0  0  0  0  0
    0.2181   -2.7989   -2.2357 H   0  0  0  0  0  0  0  0  0  0  0  0
  1  2  1  0
  2  3  1  0
  3  4  1  0
  4  5  1  0
  5  6  2  0
  5  7  1  0
  7  8  1  0
  8  9  1  0
  9 10  2  0
  9 11  1  0
 11 12  2  0
 12 13  1  0
 13 14  2  0
 14 15  1  0
 15 16  2  0
 16 17  1  0
 17 18  2  0
 12 19  1  0
 19 20  2  0
 20 21  1  0
 21 22  2  0
 22 23  1  0
 23 24  2  0
 24  8  1  0
 18 13  1  0
 24 19  1  0
  1 25  1  0
  1 26  1  0
  1 27  1  0
  2 28  1  0
  2 29  1  0
  3 30  1  0
  3 31  1  0
  4 32  1  0
  7 33  1  0
  7 34  1  0
 14 35  1  0
 15 36  1  0
 16 37  1  0
 17 38  1  0
 18 39  1  0
 20 40  1  0
 21 41  1  0
 22 42  1  0
 23 43  1  0
M  END
$$$$
