
     RDKit          3D

 46 49  0  0  0  0  0  0  0  0999 V2000
   -5.3410    0.5259    3.5937 C   0  0  0  0  0  0  0  0  0  0  0  0
   -3.5332    0.5005    3.5554 S   0  0  0  0  0  0  0  0  0  0  0  0
   -3.2796    1.3435    1.9632 C   0  0  0  0  0  0  0  0  0  0  0  0
   -1.8088    1.3410    1.5280 C   0  0  0  0  0  0  0  0  0  0  0  0
   -1.2293   -0.0538    1.2025 C   0  0  2  0  0  0  0  0  0  0  0  0
    0.1732   -0.0348    0.7828 N   0  0  0  0  0  0  0  0  0  0  0  0
    1.1809    0.3475    1.6532 C   0  0  0  0  0  0  0  0  0  0  0  0
    0.9435    0.8846    2.7295 O   0  0  0  0  0  0  0  0  0  0  0  0
    2.5234    0.0120    1.1903 C   0  0  0  0  0  0  0  0  0  0  0  0
    3.6557   -0.5193    2.3655 S   0  0  0  0  0  0  0  0  0  0  0  0
    4.8576   -0.7957    1.1980 C   0  0  0  0  0  0  0  0  0  0  0  0
    6.0782   -1.2878    1.5401 N   0  0  0  0  0  0  0  0  0  0  0  0
    6.8893   -1.4360    0.5454 C   0  0  0  0  0  0  0  0  0  0  0  0
    6.5915   -1.1396   -0.7611 N   0  0  0  0  0  0  0  0  0  0  0  0
    5.3668   -0.6540   -1.1592 C   0  0  0  0  0  0  0  0  0  0  0  0
    5.1161   -0.4275   -2.3382 O   0  0  0  0  0  0  0  0  0  0  0  0
    4.4264   -0.4595   -0.0682 C   0  0  0  0  0  0  0  0  0  0  0  0
    3.0775    0.0511   -0.0874 C   0  0  0  0  0  0  0  0  0  0  0  0
    2.3969    0.5585   -1.3201 C   0  0  0  0  0  0  0  0  0  0  0  0
   -2.0130   -0.7504    0.1250 C   0  0  0  0  0  0  0  0  0  0  0  0
   -2.7245   -1.8503    0.2959 N   0  0  0  0  0  0  0  0  0  0  0  0
   -3.3121   -2.1850   -0.8987 N   0  0  0  0  0  0  0  0  0  0  0  0
   -2.9462   -1.2931   -1.7894 C   0  0  0  0  0  0  0  0  0  0  0  0
   -3.2395   -1.1429   -3.1722 C   0  0  0  0  0  0  0  0  0  0  0  0
   -2.7005   -0.1166   -3.8584 C   0  0  0  0  0  0  0  0  0  0  0  0
   -1.8201    0.8463   -3.2152 C   0  0  0  0  0  0  0  0  0  0  0  0
   -1.5459    0.7079   -1.9065 C   0  0  0  0  0  0  0  0  0  0  0  0
   -2.1107   -0.3544   -1.1971 N   0  0  0  0  0  0  0  0  0  0  0  0
   -5.6884    0.0584    4.5188 H   0  0  0  0  0  0  0  0  0  0  0  0
   -5.7078    1.5552    3.5650 H   0  0  0  0  0  0  0  0  0  0  0  0
   -5.7475   -0.0342    2.7476 H   0  0  0  0  0  0  0  0  0  0  0  0
   -3.6110    2.3811    2.0787 H   0  0  0  0  0  0  0  0  0  0  0  0
   -3.9112    0.8801    1.1991 H   0  0  0  0  0  0  0  0  0  0  0  0
   -1.2165    1.8327    2.3076 H   0  0  0  0  0  0  0  0  0  0  0  0
   -1.7182    1.9953    0.6530 H   0  0  0  0  0  0  0  0  0  0  0  0
   -1.2573   -0.6758    2.1056 H   0  0  0  0  0  0  0  0  0  0  0  0
    0.4508   -0.7800    0.1552 H   0  0  0  0  0  0  0  0  0  0  0  0
    7.9095   -1.8255    0.6903 H   0  0  0  0  0  0  0  0  0  0  0  0
    7.2690   -1.2905   -1.4931 H   0  0  0  0  0  0  0  0  0  0  0  0
    3.1035    1.0631   -1.9856 H   0  0  0  0  0  0  0  0  0  0  0  0
    1.9322   -0.2690   -1.8650 H   0  0  0  0  0  0  0  0  0  0  0  0
    1.6267    1.2959   -1.0756 H   0  0  0  0  0  0  0  0  0  0  0  0
   -3.8947   -1.8650   -3.6464 H   0  0  0  0  0  0  0  0  0  0  0  0
   -2.9121    0.0144   -4.9159 H   0  0  0  0  0  0  0  0  0  0  0  0
   -1.4042    1.6544   -3.8086 H   0  0  0  0  0  0  0  0  0  0  0  0
   -0.8956    1.3913   -1.3777 H   0  0  0  0  0  0  0  0  0  0  0  0
  1  2  1  0
  2  3  1  0
  3  4  1  0
  4  5  1  0
  5  6  1  0
  6  7  1  0
  7  8  2  0
  7  9  1  0
  9 10  1  0
 10 11  1  0
 11 12  1  0
 12 13  2  0
 13 14  1  0
 14 15  1  0
 15 16  2  0
 15 17  1  0
 17 18  1  0
 18 19  1  0
  5 20  1  0
 20 21  2  0
 21 22  1  0
 22 23  2  0
 23 24  1  0
 24 25  2  0
 25 26  1  0
 26 27  2  0
 27 28  1  0
 18  9  2  0
 28 20  1  0
 17 11  2  0
 28 23  1  0
  1 29  1  0
  1 30  1  0
  1 31  1  0
  3 32  1  0
  3 33  1  0
  4 34  1  0
  4 35  1  0
  5 36  1  1
  6 37  1  0
 13 38  1  0
 14 39  1  0
 19 40  1  0
 19 41  1  0
 19 42  1  0
 24 43  1  0
 25 44  1  0
 26 45  1  0
 27 46  1  0
M  END
$$$$
