
     RDKit          3D

 45 47  0  0  0  0  0  0  0  0999 V2000
    7.5552    2.3092    0.8573 C   0  0  0  0  0  0  0  0  0  0  0  0
    6.8829    1.6091   -0.1822 O   0  0  0  0  0  0  0  0  0  0  0  0
    5.6342    1.1316    0.1027 C   0  0  0  0  0  0  0  0  0  0  0  0
    5.0098    0.4616   -0.9501 C   0  0  0  0  0  0  0  0  0  0  0  0
    3.7273   -0.0788   -0.7979 C   0  0  0  0  0  0  0  0  0  0  0  0
    3.0426    0.0405    0.4179 C   0  0  0  0  0  0  0  0  0  0  0  0
    1.6967   -0.5214    0.5987 C   0  0  0  0  0  0  0  0  0  0  0  0
    0.9150   -1.2524   -0.3369 C   0  0  0  0  0  0  0  0  0  0  0  0
   -0.2593   -1.5465    0.3156 C   0  0  0  0  0  0  0  0  0  0  0  0
   -1.4778   -2.2324   -0.0091 C   0  0  0  0  0  0  0  0  0  0  0  0
   -1.5739   -2.9316   -1.6039 S   0  0  0  0  0  0  0  0  0  0  0  0
   -3.3149   -2.6057   -1.9927 C   0  0  0  0  0  0  0  0  0  0  0  0
   -3.5591   -1.1139   -2.1468 C   0  0  0  0  0  0  0  0  0  0  0  0
   -3.4647   -0.5400   -3.2286 O   0  0  0  0  0  0  0  0  0  0  0  0
   -3.8732   -0.4643   -0.9717 N   0  0  0  0  0  0  0  0  0  0  0  0
   -4.1857    0.9549   -0.9192 C   0  0  0  0  0  0  0  0  0  0  0  0
   -3.8378    1.5166    0.4554 C   0  0  0  0  0  0  0  0  0  0  0  0
   -5.6581    1.1909   -1.2469 C   0  0  0  0  0  0  0  0  0  0  0  0
   -2.4714   -2.3467    0.8292 N   0  0  0  0  0  0  0  0  0  0  0  0
   -2.3075   -1.7937    2.0855 C   0  0  0  0  0  0  0  0  0  0  0  0
   -1.2016   -1.1388    2.4694 C   0  0  0  0  0  0  0  0  0  0  0  0
   -0.1529   -1.0041    1.5743 N   0  0  0  0  0  0  0  0  0  0  0  0
    1.0304   -0.3838    1.7581 N   0  0  0  0  0  0  0  0  0  0  0  0
    3.6794    0.7163    1.4702 C   0  0  0  0  0  0  0  0  0  0  0  0
    4.9632    1.2573    1.3164 C   0  0  0  0  0  0  0  0  0  0  0  0
    7.7370    1.6570    1.7181 H   0  0  0  0  0  0  0  0  0  0  0  0
    7.0015    3.2071    1.1504 H   0  0  0  0  0  0  0  0  0  0  0  0
    8.5279    2.6281    0.4700 H   0  0  0  0  0  0  0  0  0  0  0  0
    5.5261    0.3589   -1.9018 H   0  0  0  0  0  0  0  0  0  0  0  0
    3.2857   -0.5887   -1.6485 H   0  0  0  0  0  0  0  0  0  0  0  0
    1.1730   -1.5235   -1.3510 H   0  0  0  0  0  0  0  0  0  0  0  0
   -3.5616   -3.0897   -2.9434 H   0  0  0  0  0  0  0  0  0  0  0  0
   -3.9812   -3.0331   -1.2368 H   0  0  0  0  0  0  0  0  0  0  0  0
   -3.9653   -1.0204   -0.1250 H   0  0  0  0  0  0  0  0  0  0  0  0
   -3.5754    1.4672   -1.6728 H   0  0  0  0  0  0  0  0  0  0  0  0
   -4.4196    1.0258    1.2438 H   0  0  0  0  0  0  0  0  0  0  0  0
   -4.0372    2.5921    0.5015 H   0  0  0  0  0  0  0  0  0  0  0  0
   -2.7778    1.3592    0.6829 H   0  0  0  0  0  0  0  0  0  0  0  0
   -5.8957    0.8324   -2.2541 H   0  0  0  0  0  0  0  0  0  0  0  0
   -5.9011    2.2579   -1.2043 H   0  0  0  0  0  0  0  0  0  0  0  0
   -6.3133    0.6596   -0.5463 H   0  0  0  0  0  0  0  0  0  0  0  0
   -3.1389   -1.9181    2.7754 H   0  0  0  0  0  0  0  0  0  0  0  0
   -1.0639   -0.7016    3.4490 H   0  0  0  0  0  0  0  0  0  0  0  0
    3.1774    0.8284    2.4296 H   0  0  0  0  0  0  0  0  0  0  0  0
    5.4035    1.7677    2.1660 H   0  0  0  0  0  0  0  0  0  0  0  0
  1  2  1  0
  2  3  1  0
  3  4  2  0
  4  5  1  0
  5  6  2  0
  6  7  1  0
  7  8  1  0
  8  9  2  0
  9 10  1  0
 10 11  1  0
 11 12  1  0
 12 13  1  0
 13 14  2  0
 13 15  1  0
 15 16  1  0
 16 17  1  0
 16 18  1  0
 10 19  2  0
 19 20  1  0
 20 21  2  0
 21 22  1  0
 22 23  1  0
  6 24  1  0
 24 25  2  0
 25  3  1  0
 23  7  2  0
 22  9  1  0
  1 26  1  0
  1 27  1  0
  1 28  1  0
  4 29  1  0
  5 30  1  0
  8 31  1  0
 12 32  1  0
 12 33  1  0
 15 34  1  0
 16 35  1  0
 17 36  1  0
 17 37  1  0
 17 38  1  0
 18 39  1  0
 18 40  1  0
 18 41  1  0
 20 42  1  0
 21 43  1  0
 24 44  1  0
 25 45  1  0
M  END
$$$$
