
     RDKit          3D

 51 52  0  0  0  0  0  0  0  0999 V2000
   -7.4818    0.4791    1.7621 C   0  0  0  0  0  0  0  0  0  0  0  0
   -6.8480   -0.5407    0.8327 C   0  0  0  0  0  0  0  0  0  0  0  0
   -5.3991   -0.5364    0.9219 N   0  0  0  0  0  0  0  0  0  0  0  0
   -4.8112   -1.3067    1.8530 N   0  0  0  0  0  0  0  0  0  0  0  0
   -3.5041   -1.0803    1.6950 C   0  0  0  0  0  0  0  0  0  0  0  0
   -2.5150   -1.7607    2.5692 C   0  0  0  0  0  0  0  0  0  0  0  0
   -3.2518   -0.1611    0.6397 C   0  0  0  0  0  0  0  0  0  0  0  0
   -1.9164    0.3199    0.1727 C   0  0  0  0  0  0  0  0  0  0  0  0
   -1.3344   -0.5805   -0.9214 C   0  0  0  0  0  0  0  0  0  0  0  0
   -0.0417   -0.1228   -1.4042 N   0  0  0  0  0  0  0  0  0  0  0  0
    1.0874   -0.2976   -0.6233 C   0  0  0  0  0  0  0  0  0  0  0  0
    1.0391   -0.7613    0.5075 O   0  0  0  0  0  0  0  0  0  0  0  0
    2.2062    0.1305   -1.2946 N   0  0  0  0  0  0  0  0  0  0  0  0
    3.5557    0.0661   -0.8829 C   0  0  0  0  0  0  0  0  0  0  0  0
    3.9836   -0.6240    0.2541 C   0  0  0  0  0  0  0  0  0  0  0  0
    5.3377   -0.6574    0.6033 C   0  0  0  0  0  0  0  0  0  0  0  0
    5.6192   -1.3689    1.7374 O   0  0  0  0  0  0  0  0  0  0  0  0
    6.9767   -1.4122    2.1563 C   0  0  0  0  0  0  0  0  0  0  0  0
    6.2684    0.0040   -0.1964 C   0  0  0  0  0  0  0  0  0  0  0  0
    5.8531    0.6943   -1.3409 C   0  0  0  0  0  0  0  0  0  0  0  0
    4.5015    0.7292   -1.6917 C   0  0  0  0  0  0  0  0  0  0  0  0
    3.9900    1.3740   -2.7949 O   0  0  0  0  0  0  0  0  0  0  0  0
    4.9116    2.0860   -3.6119 C   0  0  0  0  0  0  0  0  0  0  0  0
   -4.5070    0.1700    0.1541 C   0  0  0  0  0  0  0  0  0  0  0  0
   -4.9208    1.0788   -0.9444 C   0  0  0  0  0  0  0  0  0  0  0  0
   -7.1479    1.4941    1.5230 H   0  0  0  0  0  0  0  0  0  0  0  0
   -7.2187    0.2792    2.8062 H   0  0  0  0  0  0  0  0  0  0  0  0
   -8.5720    0.4483    1.6730 H   0  0  0  0  0  0  0  0  0  0  0  0
   -7.1921   -1.5516    1.0793 H   0  0  0  0  0  0  0  0  0  0  0  0
   -7.1290   -0.3446   -0.2066 H   0  0  0  0  0  0  0  0  0  0  0  0
   -2.9989   -2.4698    3.2488 H   0  0  0  0  0  0  0  0  0  0  0  0
   -1.9746   -1.0262    3.1747 H   0  0  0  0  0  0  0  0  0  0  0  0
   -1.7884   -2.3144    1.9663 H   0  0  0  0  0  0  0  0  0  0  0  0
   -2.0001    1.3471   -0.2033 H   0  0  0  0  0  0  0  0  0  0  0  0
   -1.2329    0.3766    1.0279 H   0  0  0  0  0  0  0  0  0  0  0  0
   -1.2263   -1.6120   -0.5652 H   0  0  0  0  0  0  0  0  0  0  0  0
   -2.0053   -0.6001   -1.7881 H   0  0  0  0  0  0  0  0  0  0  0  0
    0.1255   -0.2397   -2.3927 H   0  0  0  0  0  0  0  0  0  0  0  0
    2.0546    0.6945   -2.1207 H   0  0  0  0  0  0  0  0  0  0  0  0
    3.2799   -1.1535    0.8895 H   0  0  0  0  0  0  0  0  0  0  0  0
    7.3520   -0.4093    2.3849 H   0  0  0  0  0  0  0  0  0  0  0  0
    7.6042   -1.9089    1.4090 H   0  0  0  0  0  0  0  0  0  0  0  0
    7.0243   -2.0030    3.0762 H   0  0  0  0  0  0  0  0  0  0  0  0
    7.3274    0.0004    0.0399 H   0  0  0  0  0  0  0  0  0  0  0  0
    6.6133    1.1908   -1.9342 H   0  0  0  0  0  0  0  0  0  0  0  0
    5.6450    1.4086   -4.0613 H   0  0  0  0  0  0  0  0  0  0  0  0
    4.3460    2.5502   -4.4256 H   0  0  0  0  0  0  0  0  0  0  0  0
    5.4021    2.8871   -3.0491 H   0  0  0  0  0  0  0  0  0  0  0  0
   -4.0606    1.5907   -1.3860 H   0  0  0  0  0  0  0  0  0  0  0  0
   -5.6096    1.8456   -0.5763 H   0  0  0  0  0  0  0  0  0  0  0  0
   -5.4166    0.5167   -1.7422 H   0  0  0  0  0  0  0  0  0  0  0  0
  1  2  1  0
  2  3  1  0
  3  4  1  0
  4  5  2  0
  5  6  1  0
  5  7  1  0
  7  8  1  0
  8  9  1  0
  9 10  1  0
 10 11  1  0
 11 12  2  0
 11 13  1  0
 13 14  1  0
 14 15  2  0
 15 16  1  0
 16 17  1  0
 17 18  1  0
 16 19  2  0
 19 20  1  0
 20 21  2  0
 21 22  1  0
 22 23  1  0
  7 24  2  0
 24 25  1  0
 24  3  1  0
 21 14  1  0
  1 26  1  0
  1 27  1  0
  1 28  1  0
  2 29  1  0
  2 30  1  0
  6 31  1  0
  6 32  1  0
  6 33  1  0
  8 34  1  0
  8 35  1  0
  9 36  1  0
  9 37  1  0
 10 38  1  0
 13 39  1  0
 15 40  1  0
 18 41  1  0
 18 42  1  0
 18 43  1  0
 19 44  1  0
 20 45  1  0
 23 46  1  0
 23 47  1  0
 23 48  1  0
 25 49  1  0
 25 50  1  0
 25 51  1  0
M  END
$$$$
