
     RDKit          3D

 49 52  0  0  0  0  0  0  0  0999 V2000
    3.7190   -1.8659   -0.8051 O   0  0  0  0  0  0  0  0  0  0  0  0
    3.4691   -1.0275    0.0615 C   0  0  0  0  0  0  0  0  0  0  0  0
    4.5533   -0.1506    0.6833 C   0  0  0  0  0  0  0  0  0  0  0  0
    5.8471   -0.1141   -0.0987 C   0  0  0  0  0  0  0  0  0  0  0  0
    6.8606   -1.0488    0.1585 C   0  0  0  0  0  0  0  0  0  0  0  0
    8.0519   -1.0202   -0.5698 C   0  0  0  0  0  0  0  0  0  0  0  0
    8.2320   -0.0599   -1.5627 C   0  0  0  0  0  0  0  0  0  0  0  0
    9.8444   -0.0207   -2.5491 Br  0  0  0  0  0  0  0  0  0  0  0  0
    7.2310    0.8693   -1.8371 C   0  0  0  0  0  0  0  0  0  0  0  0
    6.0396    0.8399   -1.1088 C   0  0  0  0  0  0  0  0  0  0  0  0
    2.1745   -0.8452    0.5392 N   0  0  0  0  0  0  0  0  0  0  0  0
    1.0833   -1.6196   -0.0587 C   0  0  0  0  0  0  0  0  0  0  0  0
   -0.2493   -0.8555   -0.0677 C   0  0  0  0  0  0  0  0  0  0  0  0
   -0.6138   -0.3055    1.2450 N   0  0  0  0  0  0  0  0  0  0  0  0
   -1.9077    0.0755    1.6207 C   0  0  0  0  0  0  0  0  0  0  0  0
   -2.1638    0.3261    2.8015 O   0  0  0  0  0  0  0  0  0  0  0  0
   -2.9811    0.1890    0.6046 C   0  0  0  0  0  0  0  0  0  0  0  0
   -4.3662    0.3407    0.9016 C   0  0  0  0  0  0  0  0  0  0  0  0
   -5.0255    0.4336   -0.3077 C   0  0  0  0  0  0  0  0  0  0  0  0
   -6.4395    0.6052   -0.6302 C   0  0  0  0  0  0  0  0  0  0  0  0
   -7.3083    1.2442    0.2592 C   0  0  0  0  0  0  0  0  0  0  0  0
   -8.6540    1.4041   -0.0695 C   0  0  0  0  0  0  0  0  0  0  0  0
   -9.0966    0.9157   -1.2865 C   0  0  0  0  0  0  0  0  0  0  0  0
   -8.2974    0.2880   -2.1739 N   0  0  0  0  0  0  0  0  0  0  0  0
   -6.9965    0.1434   -1.8225 C   0  0  0  0  0  0  0  0  0  0  0  0
   -4.0243    0.3689   -1.2408 N   0  0  0  0  0  0  0  0  0  0  0  0
   -2.7937    0.2156   -0.7278 N   0  0  0  0  0  0  0  0  0  0  0  0
    0.4417   -0.2759    2.2566 C   0  0  0  0  0  0  0  0  0  0  0  0
    1.8168    0.0394    1.6538 C   0  0  0  0  0  0  0  0  0  0  0  0
    4.7541   -0.5206    1.6960 H   0  0  0  0  0  0  0  0  0  0  0  0
    4.1846    0.8770    0.7805 H   0  0  0  0  0  0  0  0  0  0  0  0
    6.7236   -1.8135    0.9200 H   0  0  0  0  0  0  0  0  0  0  0  0
    8.8255   -1.7538   -0.3605 H   0  0  0  0  0  0  0  0  0  0  0  0
    7.3643    1.6136   -2.6173 H   0  0  0  0  0  0  0  0  0  0  0  0
    5.2605    1.5628   -1.3403 H   0  0  0  0  0  0  0  0  0  0  0  0
    0.9854   -2.5331    0.5405 H   0  0  0  0  0  0  0  0  0  0  0  0
    1.3400   -1.9228   -1.0793 H   0  0  0  0  0  0  0  0  0  0  0  0
   -1.0373   -1.5313   -0.4134 H   0  0  0  0  0  0  0  0  0  0  0  0
   -0.1715   -0.0074   -0.7575 H   0  0  0  0  0  0  0  0  0  0  0  0
   -4.8055    0.3669    1.8902 H   0  0  0  0  0  0  0  0  0  0  0  0
   -6.9481    1.6326    1.2085 H   0  0  0  0  0  0  0  0  0  0  0  0
   -9.3386    1.9010    0.6089 H   0  0  0  0  0  0  0  0  0  0  0  0
  -10.1354    1.0180   -1.5876 H   0  0  0  0  0  0  0  0  0  0  0  0
   -6.4048   -0.3903   -2.5608 H   0  0  0  0  0  0  0  0  0  0  0  0
   -4.1106    0.4416   -2.2489 H   0  0  0  0  0  0  0  0  0  0  0  0
    0.2080    0.4586    3.0346 H   0  0  0  0  0  0  0  0  0  0  0  0
    0.4550   -1.2652    2.7300 H   0  0  0  0  0  0  0  0  0  0  0  0
    1.8203    1.0611    1.2558 H   0  0  0  0  0  0  0  0  0  0  0  0
    2.5840   -0.0231    2.4316 H   0  0  0  0  0  0  0  0  0  0  0  0
  1  2  2  0
  2  3  1  0
  3  4  1  0
  4  5  2  0
  5  6  1  0
  6  7  2  0
  7  8  1  0
  7  9  1  0
  9 10  2  0
  2 11  1  0
 11 12  1  0
 12 13  1  0
 13 14  1  0
 14 15  1  0
 15 16  2  0
 15 17  1  0
 17 18  1  0
 18 19  2  0
 19 20  1  0
 20 21  2  0
 21 22  1  0
 22 23  2  0
 23 24  1  0
 24 25  2  0
 19 26  1  0
 26 27  1  0
 14 28  1  0
 28 29  1  0
 10  4  1  0
 29 11  1  0
 27 17  2  0
 25 20  1  0
  3 30  1  0
  3 31  1  0
  5 32  1  0
  6 33  1  0
  9 34  1  0
 10 35  1  0
 12 36  1  0
 12 37  1  0
 13 38  1  0
 13 39  1  0
 18 40  1  0
 21 41  1  0
 22 42  1  0
 23 43  1  0
 25 44  1  0
 26 45  1  0
 28 46  1  0
 28 47  1  0
 29 48  1  0
 29 49  1  0
M  END
$$$$
