
     RDKit          3D

 42 44  0  0  0  0  0  0  0  0999 V2000
   -2.9742   -2.0145    1.7609 C   0  0  0  0  0  0  0  0  0  0  0  0
   -2.2035   -0.4495    2.1196 S   0  0  0  0  0  6  0  0  0  0  0  0
   -0.7959   -0.6695    2.3702 O   0  0  0  0  0  0  0  0  0  0  0  0
   -3.0340    0.1972    3.1174 O   0  0  0  0  0  0  0  0  0  0  0  0
   -2.4274    0.3565    0.6226 N   0  0  0  0  0  0  0  0  0  0  0  0
   -3.3913    1.4868    0.6946 C   0  0  0  0  0  0  0  0  0  0  0  0
   -3.5875    2.1401   -0.6603 C   0  0  0  0  0  0  0  0  0  0  0  0
   -2.2450    2.6228   -1.1798 C   0  0  0  0  0  0  0  0  0  0  0  0
   -1.2795    1.4709   -1.2617 C   0  0  0  0  0  0  0  0  0  0  0  0
   -0.2810    1.4990   -2.2472 C   0  0  0  0  0  0  0  0  0  0  0  0
    0.5950    0.4270   -2.3940 C   0  0  0  0  0  0  0  0  0  0  0  0
    0.4905   -0.6777   -1.5531 C   0  0  0  0  0  0  0  0  0  0  0  0
    1.3482   -1.7858   -1.8114 N   0  0  0  0  0  0  0  0  0  0  0  0
    2.1360   -2.6274   -0.5859 S   0  0  0  0  0  6  0  0  0  0  0  0
    3.1381   -3.4373   -1.2478 O   0  0  0  0  0  0  0  0  0  0  0  0
    1.1581   -3.2278    0.2948 O   0  0  0  0  0  0  0  0  0  0  0  0
    2.9973   -1.3439    0.2928 C   0  0  0  0  0  0  0  0  0  0  0  0
    2.5277   -0.9078    1.5341 C   0  0  0  0  0  0  0  0  0  0  0  0
    3.2126    0.1007    2.2150 C   0  0  0  0  0  0  0  0  0  0  0  0
    4.3680    0.6515    1.6605 C   0  0  0  0  0  0  0  0  0  0  0  0
    5.2102    1.8947    2.5001 Cl  0  0  0  0  0  0  0  0  0  0  0  0
    4.8505    0.1993    0.4310 C   0  0  0  0  0  0  0  0  0  0  0  0
    4.1670   -0.8058   -0.2566 C   0  0  0  0  0  0  0  0  0  0  0  0
   -0.5009   -0.7029   -0.5671 C   0  0  0  0  0  0  0  0  0  0  0  0
   -1.3622    0.3869   -0.3668 C   0  0  0  0  0  0  0  0  0  0  0  0
   -2.9337   -2.6218    2.6681 H   0  0  0  0  0  0  0  0  0  0  0  0
   -2.4379   -2.5204    0.9587 H   0  0  0  0  0  0  0  0  0  0  0  0
   -4.0152   -1.8388    1.4828 H   0  0  0  0  0  0  0  0  0  0  0  0
   -3.0266    2.2335    1.4107 H   0  0  0  0  0  0  0  0  0  0  0  0
   -4.3612    1.1135    1.0426 H   0  0  0  0  0  0  0  0  0  0  0  0
   -4.0325    1.4234   -1.3626 H   0  0  0  0  0  0  0  0  0  0  0  0
   -4.2805    2.9842   -0.5726 H   0  0  0  0  0  0  0  0  0  0  0  0
   -1.8266    3.3948   -0.5230 H   0  0  0  0  0  0  0  0  0  0  0  0
   -2.3914    3.0699   -2.1702 H   0  0  0  0  0  0  0  0  0  0  0  0
   -0.1984    2.3489   -2.9218 H   0  0  0  0  0  0  0  0  0  0  0  0
    1.3456    0.4639   -3.1786 H   0  0  0  0  0  0  0  0  0  0  0  0
    1.8707   -1.8042   -2.6852 H   0  0  0  0  0  0  0  0  0  0  0  0
    1.6321   -1.3386    1.9770 H   0  0  0  0  0  0  0  0  0  0  0  0
    2.8376    0.4480    3.1749 H   0  0  0  0  0  0  0  0  0  0  0  0
    5.7584    0.6224    0.0087 H   0  0  0  0  0  0  0  0  0  0  0  0
    4.5517   -1.1655   -1.2081 H   0  0  0  0  0  0  0  0  0  0  0  0
   -0.6086   -1.5969    0.0334 H   0  0  0  0  0  0  0  0  0  0  0  0
  1  2  1  0
  2  3  2  0
  2  4  2  0
  2  5  1  0
  5  6  1  0
  6  7  1  0
  7  8  1  0
  8  9  1  0
  9 10  2  0
 10 11  1  0
 11 12  2  0
 12 13  1  0
 13 14  1  0
 14 15  2  0
 14 16  2  0
 14 17  1  0
 17 18  2  0
 18 19  1  0
 19 20  2  0
 20 21  1  0
 20 22  1  0
 22 23  2  0
 12 24  1  0
 24 25  2  0
 25  5  1  0
 25  9  1  0
 23 17  1  0
  1 26  1  0
  1 27  1  0
  1 28  1  0
  6 29  1  0
  6 30  1  0
  7 31  1  0
  7 32  1  0
  8 33  1  0
  8 34  1  0
 10 35  1  0
 11 36  1  0
 13 37  1  0
 18 38  1  0
 19 39  1  0
 22 40  1  0
 23 41  1  0
 24 42  1  0
M  END
$$$$
