
     RDKit          3D

 34 36  0  0  0  0  0  0  0  0999 V2000
   -0.8363    2.5640    0.2420 C   0  0  0  0  0  0  0  0  0  0  0  0
   -1.2790    1.1606   -0.0754 C   0  0  0  0  0  0  0  0  0  0  0  0
   -2.2669    0.5676    0.7358 C   0  0  0  0  0  0  0  0  0  0  0  0
   -2.6625   -0.7095    0.4183 C   0  0  0  0  0  0  0  0  0  0  0  0
   -3.6010   -1.5288    1.0338 N   0  0  0  0  0  0  0  0  0  0  0  0
   -3.6614   -2.7464    0.3392 C   0  0  0  0  0  0  0  0  0  0  0  0
   -4.3755   -3.6970    0.6004 O   0  0  0  0  0  0  0  0  0  0  0  0
   -2.7382   -2.6528   -0.7124 N   0  0  0  0  0  0  0  0  0  0  0  0
   -2.1282   -1.4042   -0.6611 C   0  0  0  0  0  0  0  0  0  0  0  0
   -1.1670   -0.8621   -1.4778 C   0  0  0  0  0  0  0  0  0  0  0  0
   -0.7297    0.4348   -1.1732 C   0  0  0  0  0  0  0  0  0  0  0  0
    0.2882    1.0298   -1.9751 N   0  0  0  0  0  0  0  0  0  0  0  0
    1.8226    0.3342   -2.0662 S   0  0  0  0  0  6  0  0  0  0  0  0
    1.7168   -1.0140   -2.5800 O   0  0  0  0  0  0  0  0  0  0  0  0
    2.6673    1.3183   -2.7098 O   0  0  0  0  0  0  0  0  0  0  0  0
    2.3255    0.2331   -0.3606 C   0  0  0  0  0  0  0  0  0  0  0  0
    2.0776   -0.9372    0.3679 C   0  0  0  0  0  0  0  0  0  0  0  0
    2.4840   -1.0144    1.7003 C   0  0  0  0  0  0  0  0  0  0  0  0
    3.1442    0.0644    2.2813 C   0  0  0  0  0  0  0  0  0  0  0  0
    3.5323   -0.0128    3.5606 F   0  0  0  0  0  0  0  0  0  0  0  0
    3.4140    1.2206    1.5542 C   0  0  0  0  0  0  0  0  0  0  0  0
    3.0094    1.3077    0.2216 C   0  0  0  0  0  0  0  0  0  0  0  0
   -1.3237    2.9450    1.1458 H   0  0  0  0  0  0  0  0  0  0  0  0
    0.2428    2.5970    0.4157 H   0  0  0  0  0  0  0  0  0  0  0  0
   -1.0949    3.2363   -0.5822 H   0  0  0  0  0  0  0  0  0  0  0  0
   -2.7034    1.0925    1.5784 H   0  0  0  0  0  0  0  0  0  0  0  0
   -4.1662   -1.3189    1.8401 H   0  0  0  0  0  0  0  0  0  0  0  0
   -2.5719   -3.3883   -1.3804 H   0  0  0  0  0  0  0  0  0  0  0  0
   -0.7764   -1.4151   -2.3240 H   0  0  0  0  0  0  0  0  0  0  0  0
    0.3125    2.0429   -2.0708 H   0  0  0  0  0  0  0  0  0  0  0  0
    1.5726   -1.7846   -0.0910 H   0  0  0  0  0  0  0  0  0  0  0  0
    2.2965   -1.9088    2.2870 H   0  0  0  0  0  0  0  0  0  0  0  0
    3.9436    2.0409    2.0295 H   0  0  0  0  0  0  0  0  0  0  0  0
    3.2322    2.2052   -0.3514 H   0  0  0  0  0  0  0  0  0  0  0  0
  1  2  1  0
  2  3  2  0
  3  4  1  0
  4  5  1  0
  5  6  1  0
  6  7  2  0
  6  8  1  0
  8  9  1  0
  9 10  1  0
 10 11  2  0
 11 12  1  0
 12 13  1  0
 13 14  2  0
 13 15  2  0
 13 16  1  0
 16 17  2  0
 17 18  1  0
 18 19  2  0
 19 20  1  0
 19 21  1  0
 21 22  2  0
 11  2  1  0
 22 16  1  0
  9  4  2  0
  1 23  1  0
  1 24  1  0
  1 25  1  0
  3 26  1  0
  5 27  1  0
  8 28  1  0
 10 29  1  0
 12 30  1  0
 17 31  1  0
 18 32  1  0
 21 33  1  0
 22 34  1  0
M  END
$$$$
