
     RDKit          3D

 58 61  0  0  0  0  0  0  0  0999 V2000
    6.3788    3.3159   -1.9027 C   0  0  0  0  0  0  0  0  0  0  0  0
    6.7145    1.9474   -1.7183 O   0  0  0  0  0  0  0  0  0  0  0  0
    5.8944    1.2022   -0.9064 C   0  0  0  0  0  0  0  0  0  0  0  0
    4.9535    1.7478   -0.0244 C   0  0  0  0  0  0  0  0  0  0  0  0
    4.1444    0.9261    0.7784 C   0  0  0  0  0  0  0  0  0  0  0  0
    4.3020   -0.4601    0.7075 C   0  0  0  0  0  0  0  0  0  0  0  0
    5.2552   -1.0110   -0.1691 C   0  0  0  0  0  0  0  0  0  0  0  0
    6.0509   -0.1923   -0.9764 C   0  0  0  0  0  0  0  0  0  0  0  0
    7.0011   -0.6518   -1.8537 O   0  0  0  0  0  0  0  0  0  0  0  0
    7.1237   -2.0573   -2.0170 C   0  0  0  0  0  0  0  0  0  0  0  0
    3.4924   -1.3606    1.5927 C   0  0  0  0  0  0  0  0  0  0  0  0
    1.9987   -1.2528    1.3734 C   0  0  0  0  0  0  0  0  0  0  0  0
    1.3652   -2.2236    0.9457 O   0  0  0  0  0  0  0  0  0  0  0  0
    1.3691   -0.0846    1.8028 N   0  0  0  0  0  0  0  0  0  0  0  0
   -0.0970   -0.1438    1.8912 C   0  0  0  0  0  0  0  0  0  0  0  0
   -0.7831    0.2770    0.5788 C   0  0  0  0  0  0  0  0  0  0  0  0
   -0.2294    1.0236   -0.2324 O   0  0  0  0  0  0  0  0  0  0  0  0
   -2.0880   -0.1579    0.3769 N   0  0  0  0  0  0  0  0  0  0  0  0
   -2.7346    0.1349   -0.9091 C   0  0  0  0  0  0  0  0  0  0  0  0
   -3.7935   -0.9149   -1.2800 C   0  0  0  0  0  0  0  0  0  0  0  0
   -4.8379   -1.0314   -0.2410 N   0  0  0  0  0  0  0  0  0  0  0  0
   -6.1169   -0.5087   -0.4798 C   0  0  0  0  0  0  0  0  0  0  0  0
   -6.3791    0.5084   -1.4080 C   0  0  0  0  0  0  0  0  0  0  0  0
   -7.6747    1.0026   -1.6032 C   0  0  0  0  0  0  0  0  0  0  0  0
   -8.7391    0.4866   -0.8718 C   0  0  0  0  0  0  0  0  0  0  0  0
   -8.5079   -0.5244    0.0533 C   0  0  0  0  0  0  0  0  0  0  0  0
   -7.2113   -1.0120    0.2444 C   0  0  0  0  0  0  0  0  0  0  0  0
   -4.3804   -0.8221    1.1538 C   0  0  0  0  0  0  0  0  0  0  0  0
   -2.8564   -0.9940    1.3093 C   0  0  0  0  0  0  0  0  0  0  0  0
    1.9813    1.1274    2.0777 C   0  0  0  0  0  0  0  0  0  0  0  0
    3.1835    1.5713    1.6835 C   0  0  0  0  0  0  0  0  0  0  0  0
    7.0253    3.7156   -2.6897 H   0  0  0  0  0  0  0  0  0  0  0  0
    6.5717    3.8910   -0.9914 H   0  0  0  0  0  0  0  0  0  0  0  0
    5.3412    3.4341   -2.2337 H   0  0  0  0  0  0  0  0  0  0  0  0
    4.8308    2.8237    0.0479 H   0  0  0  0  0  0  0  0  0  0  0  0
    5.3606   -2.0908   -0.2006 H   0  0  0  0  0  0  0  0  0  0  0  0
    7.4582   -2.5337   -1.0896 H   0  0  0  0  0  0  0  0  0  0  0  0
    6.1877   -2.4987   -2.3751 H   0  0  0  0  0  0  0  0  0  0  0  0
    7.8888   -2.2402   -2.7779 H   0  0  0  0  0  0  0  0  0  0  0  0
    3.7208   -1.1615    2.6472 H   0  0  0  0  0  0  0  0  0  0  0  0
    3.7708   -2.4088    1.4257 H   0  0  0  0  0  0  0  0  0  0  0  0
   -0.3866   -1.1665    2.1527 H   0  0  0  0  0  0  0  0  0  0  0  0
   -0.4478    0.5163    2.6930 H   0  0  0  0  0  0  0  0  0  0  0  0
   -3.1938    1.1261   -0.8143 H   0  0  0  0  0  0  0  0  0  0  0  0
   -1.9791    0.1903   -1.7004 H   0  0  0  0  0  0  0  0  0  0  0  0
   -3.3031   -1.8943   -1.3569 H   0  0  0  0  0  0  0  0  0  0  0  0
   -4.2050   -0.7190   -2.2760 H   0  0  0  0  0  0  0  0  0  0  0  0
   -5.5792    0.9608   -1.9853 H   0  0  0  0  0  0  0  0  0  0  0  0
   -7.8470    1.7950   -2.3271 H   0  0  0  0  0  0  0  0  0  0  0  0
   -9.7445    0.8680   -1.0254 H   0  0  0  0  0  0  0  0  0  0  0  0
   -9.3333   -0.9420    0.6237 H   0  0  0  0  0  0  0  0  0  0  0  0
   -7.0617   -1.8212    0.9546 H   0  0  0  0  0  0  0  0  0  0  0  0
   -4.6405    0.1942    1.4810 H   0  0  0  0  0  0  0  0  0  0  0  0
   -4.8812   -1.5315    1.8227 H   0  0  0  0  0  0  0  0  0  0  0  0
   -2.5714   -2.0342    1.1113 H   0  0  0  0  0  0  0  0  0  0  0  0
   -2.5733   -0.7586    2.3395 H   0  0  0  0  0  0  0  0  0  0  0  0
    1.3570    1.8348    2.6230 H   0  0  0  0  0  0  0  0  0  0  0  0
    3.4554    2.5828    1.9834 H   0  0  0  0  0  0  0  0  0  0  0  0
  1  2  1  0
  2  3  1  0
  3  4  2  0
  4  5  1  0
  5  6  2  0
  6  7  1  0
  7  8  2  0
  8  9  1  0
  9 10  1  0
  6 11  1  0
 11 12  1  0
 12 13  2  0
 12 14  1  0
 14 15  1  0
 15 16  1  0
 16 17  2  0
 16 18  1  0
 18 19  1  0
 19 20  1  0
 20 21  1  0
 21 22  1  0
 22 23  2  0
 23 24  1  0
 24 25  2  0
 25 26  1  0
 26 27  2  0
 21 28  1  0
 28 29  1  0
 14 30  1  0
 30 31  2  0
  8  3  1  0
 29 18  1  0
 31  5  1  0
 27 22  1  0
  1 32  1  0
  1 33  1  0
  1 34  1  0
  4 35  1  0
  7 36  1  0
 10 37  1  0
 10 38  1  0
 10 39  1  0
 11 40  1  0
 11 41  1  0
 15 42  1  0
 15 43  1  0
 19 44  1  0
 19 45  1  0
 20 46  1  0
 20 47  1  0
 23 48  1  0
 24 49  1  0
 25 50  1  0
 26 51  1  0
 27 52  1  0
 28 53  1  0
 28 54  1  0
 29 55  1  0
 29 56  1  0
 30 57  1  0
 31 58  1  0
M  END
$$$$
