
     RDKit          3D

 63 66  0  0  0  0  0  0  0  0999 V2000
   -9.0813   -0.8735   -1.6493 C   0  0  0  0  0  0  0  0  0  0  0  0
   -7.8120   -0.3256   -1.0702 C   0  0  0  0  0  0  0  0  0  0  0  0
   -6.9517    0.4567   -1.8422 C   0  0  0  0  0  0  0  0  0  0  0  0
   -5.7810    0.9936   -1.2888 C   0  0  0  0  0  0  0  0  0  0  0  0
   -5.4400    0.7714    0.0508 C   0  0  0  0  0  0  0  0  0  0  0  0
   -4.2436    1.2927    0.6201 N   0  0  0  0  0  0  0  0  0  0  0  0
   -3.8334    0.9890    1.9750 C   0  0  0  0  0  0  0  0  0  0  0  0
   -2.3815    1.4127    2.0388 C   0  0  0  0  0  0  0  0  0  0  0  0
   -1.4294    0.2584    1.7570 C   0  0  0  0  0  0  0  0  0  0  0  0
   -0.5489   -0.0453    2.5576 O   0  0  0  0  0  0  0  0  0  0  0  0
   -1.5968   -0.3955    0.5566 N   0  0  0  0  0  0  0  0  0  0  0  0
   -0.8302   -1.5892    0.2218 C   0  0  0  0  0  0  0  0  0  0  0  0
    0.6446   -1.3036   -0.0117 C   0  0  0  0  0  0  0  0  0  0  0  0
    1.4465   -2.7863   -0.6041 S   0  0  0  0  0  6  0  0  0  0  0  0
    0.9735   -3.0312   -1.9497 O   0  0  0  0  0  0  0  0  0  0  0  0
    1.3436   -3.8015    0.4215 O   0  0  0  0  0  0  0  0  0  0  0  0
    3.0602   -2.3283   -0.7099 N   0  0  0  0  0  0  0  0  0  0  0  0
    3.8374   -2.2445    0.5573 C   0  0  0  0  0  0  0  0  0  0  0  0
    5.2520   -1.6805    0.3269 C   0  0  0  0  0  0  0  0  0  0  0  0
    5.1934   -0.3384   -0.2776 N   0  0  0  0  0  0  0  0  0  0  0  0
    6.2214    0.5771   -0.1211 C   0  0  0  0  0  0  0  0  0  0  0  0
    7.5107    0.1867    0.2840 C   0  0  0  0  0  0  0  0  0  0  0  0
    8.5461    1.1145    0.4509 C   0  0  0  0  0  0  0  0  0  0  0  0
    8.3056    2.4579    0.2138 C   0  0  0  0  0  0  0  0  0  0  0  0
    9.2929    3.3483    0.3731 F   0  0  0  0  0  0  0  0  0  0  0  0
    7.0522    2.8869   -0.1864 C   0  0  0  0  0  0  0  0  0  0  0  0
    6.0232    1.9521   -0.3503 C   0  0  0  0  0  0  0  0  0  0  0  0
    4.0636   -0.0645   -1.1816 C   0  0  0  0  0  0  0  0  0  0  0  0
    3.4639   -1.3577   -1.7643 C   0  0  0  0  0  0  0  0  0  0  0  0
   -2.2633    2.5201    1.0071 C   0  0  0  0  0  0  0  0  0  0  0  0
   -3.3717    2.2185    0.0269 C   0  0  0  0  0  0  0  0  0  0  0  0
   -3.4300    2.7411   -1.0750 O   0  0  0  0  0  0  0  0  0  0  0  0
   -6.3223   -0.0032    0.8209 C   0  0  0  0  0  0  0  0  0  0  0  0
   -7.4940   -0.5401    0.2715 C   0  0  0  0  0  0  0  0  0  0  0  0
   -9.9178   -0.2094   -1.4118 H   0  0  0  0  0  0  0  0  0  0  0  0
   -9.2924   -1.8704   -1.2475 H   0  0  0  0  0  0  0  0  0  0  0  0
   -9.0083   -0.9718   -2.7384 H   0  0  0  0  0  0  0  0  0  0  0  0
   -7.1791    0.6581   -2.8877 H   0  0  0  0  0  0  0  0  0  0  0  0
   -5.1504    1.5800   -1.9504 H   0  0  0  0  0  0  0  0  0  0  0  0
   -3.9543   -0.0758    2.1997 H   0  0  0  0  0  0  0  0  0  0  0  0
   -4.4468    1.5876    2.6586 H   0  0  0  0  0  0  0  0  0  0  0  0
   -2.1297    1.7830    3.0401 H   0  0  0  0  0  0  0  0  0  0  0  0
   -2.4515   -0.2438    0.0280 H   0  0  0  0  0  0  0  0  0  0  0  0
   -0.9621   -2.3135    1.0336 H   0  0  0  0  0  0  0  0  0  0  0  0
   -1.2910   -2.0142   -0.6769 H   0  0  0  0  0  0  0  0  0  0  0  0
    0.7781   -0.5231   -0.7671 H   0  0  0  0  0  0  0  0  0  0  0  0
    1.1386   -0.9952    0.9124 H   0  0  0  0  0  0  0  0  0  0  0  0
    3.3098   -1.6031    1.2726 H   0  0  0  0  0  0  0  0  0  0  0  0
    3.9242   -3.2479    0.9888 H   0  0  0  0  0  0  0  0  0  0  0  0
    5.7521   -1.6471    1.3018 H   0  0  0  0  0  0  0  0  0  0  0  0
    5.8213   -2.3497   -0.3297 H   0  0  0  0  0  0  0  0  0  0  0  0
    7.7448   -0.8607    0.4561 H   0  0  0  0  0  0  0  0  0  0  0  0
    9.5340    0.7906    0.7593 H   0  0  0  0  0  0  0  0  0  0  0  0
    6.8747    3.9421   -0.3643 H   0  0  0  0  0  0  0  0  0  0  0  0
    5.0458    2.3288   -0.6387 H   0  0  0  0  0  0  0  0  0  0  0  0
    4.3789    0.5577   -2.0281 H   0  0  0  0  0  0  0  0  0  0  0  0
    3.2911    0.4811   -0.6262 H   0  0  0  0  0  0  0  0  0  0  0  0
    2.6184   -1.0958   -2.4083 H   0  0  0  0  0  0  0  0  0  0  0  0
    4.2037   -1.8573   -2.4020 H   0  0  0  0  0  0  0  0  0  0  0  0
   -2.4586    3.5019    1.4514 H   0  0  0  0  0  0  0  0  0  0  0  0
   -1.2965    2.5279    0.4956 H   0  0  0  0  0  0  0  0  0  0  0  0
   -6.1394   -0.2009    1.8731 H   0  0  0  0  0  0  0  0  0  0  0  0
   -8.1575   -1.1276    0.9032 H   0  0  0  0  0  0  0  0  0  0  0  0
  1  2  1  0
  2  3  2  0
  3  4  1  0
  4  5  2  0
  5  6  1  0
  6  7  1  0
  7  8  1  0
  8  9  1  0
  9 10  2  0
  9 11  1  0
 11 12  1  0
 12 13  1  0
 13 14  1  0
 14 15  2  0
 14 16  2  0
 14 17  1  0
 17 18  1  0
 18 19  1  0
 19 20  1  0
 20 21  1  0
 21 22  2  0
 22 23  1  0
 23 24  2  0
 24 25  1  0
 24 26  1  0
 26 27  2  0
 20 28  1  0
 28 29  1  0
  8 30  1  0
 30 31  1  0
 31 32  2  0
  5 33  1  0
 33 34  2  0
 34  2  1  0
 31  6  1  0
 29 17  1  0
 27 21  1  0
  1 35  1  0
  1 36  1  0
  1 37  1  0
  3 38  1  0
  4 39  1  0
  7 40  1  0
  7 41  1  0
  8 42  1  0
 11 43  1  0
 12 44  1  0
 12 45  1  0
 13 46  1  0
 13 47  1  0
 18 48  1  0
 18 49  1  0
 19 50  1  0
 19 51  1  0
 22 52  1  0
 23 53  1  0
 26 54  1  0
 27 55  1  0
 28 56  1  0
 28 57  1  0
 29 58  1  0
 29 59  1  0
 30 60  1  0
 30 61  1  0
 33 62  1  0
 34 63  1  0
M  END
$$$$
