
     RDKit          3D

 40 43  0  0  0  0  0  0  0  0999 V2000
   -1.1852    0.8748    1.2990 O   0  0  0  0  0  0  0  0  0  0  0  0
   -1.7269    0.0892    0.5229 C   0  0  0  0  0  0  0  0  0  0  0  0
   -0.9164   -0.7713   -0.4376 C   0  0  0  0  0  0  0  0  0  0  0  0
   -0.9980   -0.2317   -1.8548 C   0  0  0  0  0  0  0  0  0  0  0  0
    0.2924    0.5246   -2.0580 C   0  0  0  0  0  0  0  0  0  0  0  0
    0.4507    1.2493   -3.0298 O   0  0  0  0  0  0  0  0  0  0  0  0
    1.1697    0.1772   -1.0266 N   0  0  0  0  0  0  0  0  0  0  0  0
    2.4859    0.6397   -0.9597 C   0  0  0  0  0  0  0  0  0  0  0  0
    2.9702    1.5472   -1.8145 N   0  0  0  0  0  0  0  0  0  0  0  0
    4.2307    1.7526   -1.4334 N   0  0  0  0  0  0  0  0  0  0  0  0
    4.6271    0.9989   -0.3684 C   0  0  0  0  0  0  0  0  0  0  0  0
    5.8545    0.9245    0.2994 C   0  0  0  0  0  0  0  0  0  0  0  0
    5.9463    0.0348    1.3712 C   0  0  0  0  0  0  0  0  0  0  0  0
    4.8553   -0.7427    1.7490 C   0  0  0  0  0  0  0  0  0  0  0  0
    3.6353   -0.6496    1.0638 C   0  0  0  0  0  0  0  0  0  0  0  0
    3.5074    0.2459   -0.0214 C   0  0  0  0  0  0  0  0  0  0  0  0
    0.5694   -0.7655   -0.1212 C   0  0  0  0  0  0  0  0  0  0  0  0
   -3.0981   -0.0488    0.4786 N   0  0  0  0  0  0  0  0  0  0  0  0
   -3.9535    0.7418    1.3504 C   0  0  0  0  0  0  0  0  0  0  0  0
   -5.3086    0.0516    1.2884 C   0  0  0  0  0  0  0  0  0  0  0  0
   -5.3197   -0.5538   -0.1087 C   0  0  0  0  0  0  0  0  0  0  0  0
   -3.8786   -1.0071   -0.2917 C   0  0  0  0  0  0  0  0  0  0  0  0
   -1.3023   -1.7945   -0.3658 H   0  0  0  0  0  0  0  0  0  0  0  0
   -1.0310   -1.0484   -2.5836 H   0  0  0  0  0  0  0  0  0  0  0  0
   -1.8411    0.4450   -2.0203 H   0  0  0  0  0  0  0  0  0  0  0  0
    4.7796    2.4269   -1.9534 H   0  0  0  0  0  0  0  0  0  0  0  0
    6.7041    1.5304    0.0017 H   0  0  0  0  0  0  0  0  0  0  0  0
    6.8833   -0.0517    1.9171 H   0  0  0  0  0  0  0  0  0  0  0  0
    4.9484   -1.4306    2.5864 H   0  0  0  0  0  0  0  0  0  0  0  0
    2.8104   -1.2749    1.3848 H   0  0  0  0  0  0  0  0  0  0  0  0
    1.0045   -1.7499   -0.3309 H   0  0  0  0  0  0  0  0  0  0  0  0
    0.7796   -0.4934    0.9163 H   0  0  0  0  0  0  0  0  0  0  0  0
   -4.0017    1.7560    0.9389 H   0  0  0  0  0  0  0  0  0  0  0  0
   -3.5508    0.7886    2.3667 H   0  0  0  0  0  0  0  0  0  0  0  0
   -5.3571   -0.7475    2.0380 H   0  0  0  0  0  0  0  0  0  0  0  0
   -6.1404    0.7388    1.4652 H   0  0  0  0  0  0  0  0  0  0  0  0
   -5.5670    0.2201   -0.8455 H   0  0  0  0  0  0  0  0  0  0  0  0
   -6.0363   -1.3725   -0.2157 H   0  0  0  0  0  0  0  0  0  0  0  0
   -3.7150   -1.9987    0.1443 H   0  0  0  0  0  0  0  0  0  0  0  0
   -3.5772   -1.0256   -1.3410 H   0  0  0  0  0  0  0  0  0  0  0  0
  1  2  2  0
  2  3  1  0
  3  4  1  0
  4  5  1  0
  5  6  2  0
  5  7  1  0
  7  8  1  0
  8  9  2  0
  9 10  1  0
 10 11  1  0
 11 12  2  0
 12 13  1  0
 13 14  2  0
 14 15  1  0
 15 16  2  0
  7 17  1  0
  2 18  1  0
 18 19  1  0
 19 20  1  0
 20 21  1  0
 21 22  1  0
 17  3  1  0
 22 18  1  0
 16  8  1  0
 16 11  1  0
  3 23  1  0
  4 24  1  0
  4 25  1  0
 10 26  1  0
 12 27  1  0
 13 28  1  0
 14 29  1  0
 15 30  1  0
 17 31  1  0
 17 32  1  0
 19 33  1  0
 19 34  1  0
 20 35  1  0
 20 36  1  0
 21 37  1  0
 21 38  1  0
 22 39  1  0
 22 40  1  0
M  END
$$$$
