
     RDKit          3D

 53 55  0  0  0  0  0  0  0  0999 V2000
   -5.8494   -1.8799    0.1863 C   0  0  0  0  0  0  0  0  0  0  0  0
   -5.5713   -0.6116    0.7825 O   0  0  0  0  0  0  0  0  0  0  0  0
   -5.6523    0.3889   -0.1608 C   0  0  0  0  0  0  0  0  0  0  0  0
   -6.9288    0.7826   -0.5844 C   0  0  0  0  0  0  0  0  0  0  0  0
   -7.0647    1.7701   -1.5522 C   0  0  0  0  0  0  0  0  0  0  0  0
   -5.9258    2.3587   -2.0920 C   0  0  0  0  0  0  0  0  0  0  0  0
   -4.6526    1.9737   -1.6497 C   0  0  0  0  0  0  0  0  0  0  0  0
   -4.4717    0.9991   -0.6519 C   0  0  0  0  0  0  0  0  0  0  0  0
   -3.1989    0.6466   -0.1997 N   0  0  0  0  0  0  0  0  0  0  0  0
   -1.9867    1.0077   -0.9456 C   0  0  0  0  0  0  0  0  0  0  0  0
   -0.7708    0.2216   -0.4126 C   0  0  0  0  0  0  0  0  0  0  0  0
   -0.4893    0.4922    1.0443 N   0  0  0  0  0  0  0  0  0  0  0  0
    0.2694   -0.7803    1.8930 S   0  0  0  0  0  6  0  0  0  0  0  0
   -0.4992   -1.9811    1.6434 O   0  0  0  0  0  0  0  0  0  0  0  0
    0.5037   -0.3202    3.2449 O   0  0  0  0  0  0  0  0  0  0  0  0
    1.8444   -0.9228    1.0636 C   0  0  0  0  0  0  0  0  0  0  0  0
    2.6897    0.3209    1.2680 C   0  0  0  0  0  0  0  0  0  0  0  0
    3.9298    0.2895    0.5030 N   0  0  0  0  0  0  0  0  0  0  0  0
    4.9622   -0.5615    0.8464 C   0  0  0  0  0  0  0  0  0  0  0  0
    4.8782   -1.3733    1.7639 O   0  0  0  0  0  0  0  0  0  0  0  0
    6.1979   -0.4946    0.0159 C   0  0  0  0  0  0  0  0  0  0  0  0
    7.0126   -1.6333   -0.0462 C   0  0  0  0  0  0  0  0  0  0  0  0
    8.1815   -1.6260   -0.8111 C   0  0  0  0  0  0  0  0  0  0  0  0
    8.5414   -0.4756   -1.5077 C   0  0  0  0  0  0  0  0  0  0  0  0
   10.1218   -0.4624   -2.5443 Br  0  0  0  0  0  0  0  0  0  0  0  0
    7.7487    0.6692   -1.4408 C   0  0  0  0  0  0  0  0  0  0  0  0
    6.5784    0.6631   -0.6750 C   0  0  0  0  0  0  0  0  0  0  0  0
   -1.7002    1.0389    1.7599 C   0  0  0  0  0  0  0  0  0  0  0  0
   -3.0175    0.4202    1.2550 C   0  0  0  0  0  0  0  0  0  0  0  0
   -5.4256   -1.9806   -0.8233 H   0  0  0  0  0  0  0  0  0  0  0  0
   -6.9349   -2.0520    0.1571 H   0  0  0  0  0  0  0  0  0  0  0  0
   -5.3995   -2.6492    0.8228 H   0  0  0  0  0  0  0  0  0  0  0  0
   -7.8121    0.3177   -0.1553 H   0  0  0  0  0  0  0  0  0  0  0  0
   -8.0517    2.0801   -1.8818 H   0  0  0  0  0  0  0  0  0  0  0  0
   -6.0223    3.1314   -2.8506 H   0  0  0  0  0  0  0  0  0  0  0  0
   -3.7994    2.4853   -2.0879 H   0  0  0  0  0  0  0  0  0  0  0  0
   -1.7959    2.0855   -0.8585 H   0  0  0  0  0  0  0  0  0  0  0  0
   -2.1083    0.7651   -2.0091 H   0  0  0  0  0  0  0  0  0  0  0  0
    0.1177    0.5107   -0.9853 H   0  0  0  0  0  0  0  0  0  0  0  0
   -0.9481   -0.8477   -0.5758 H   0  0  0  0  0  0  0  0  0  0  0  0
    1.6611   -1.1298    0.0054 H   0  0  0  0  0  0  0  0  0  0  0  0
    2.3308   -1.8069    1.4875 H   0  0  0  0  0  0  0  0  0  0  0  0
    2.1543    1.2225    0.9548 H   0  0  0  0  0  0  0  0  0  0  0  0
    2.9495    0.4405    2.3257 H   0  0  0  0  0  0  0  0  0  0  0  0
    3.9995    0.8695   -0.3246 H   0  0  0  0  0  0  0  0  0  0  0  0
    6.7371   -2.5313    0.5037 H   0  0  0  0  0  0  0  0  0  0  0  0
    8.8012   -2.5176   -0.8506 H   0  0  0  0  0  0  0  0  0  0  0  0
    8.0395    1.5716   -1.9716 H   0  0  0  0  0  0  0  0  0  0  0  0
    5.9984    1.5776   -0.6083 H   0  0  0  0  0  0  0  0  0  0  0  0
   -1.7073    2.1253    1.6010 H   0  0  0  0  0  0  0  0  0  0  0  0
   -1.6195    0.8972    2.8427 H   0  0  0  0  0  0  0  0  0  0  0  0
   -3.0188   -0.6597    1.4479 H   0  0  0  0  0  0  0  0  0  0  0  0
   -3.8262    0.8787    1.8380 H   0  0  0  0  0  0  0  0  0  0  0  0
  1  2  1  0
  2  3  1  0
  3  4  2  0
  4  5  1  0
  5  6  2  0
  6  7  1  0
  7  8  2  0
  8  9  1  0
  9 10  1  0
 10 11  1  0
 11 12  1  0
 12 13  1  0
 13 14  2  0
 13 15  2  0
 13 16  1  0
 16 17  1  0
 17 18  1  0
 18 19  1  0
 19 20  2  0
 19 21  1  0
 21 22  2  0
 22 23  1  0
 23 24  2  0
 24 25  1  0
 24 26  1  0
 26 27  2  0
 12 28  1  0
 28 29  1  0
  8  3  1  0
 29  9  1  0
 27 21  1  0
  1 30  1  0
  1 31  1  0
  1 32  1  0
  4 33  1  0
  5 34  1  0
  6 35  1  0
  7 36  1  0
 10 37  1  0
 10 38  1  0
 11 39  1  0
 11 40  1  0
 16 41  1  0
 16 42  1  0
 17 43  1  0
 17 44  1  0
 18 45  1  0
 22 46  1  0
 23 47  1  0
 26 48  1  0
 27 49  1  0
 28 50  1  0
 28 51  1  0
 29 52  1  0
 29 53  1  0
M  END
$$$$
