
     RDKit          3D

 38 40  0  0  0  0  0  0  0  0999 V2000
    5.6690    0.3666    0.3343 C   0  0  0  0  0  0  0  0  0  0  0  0
    4.2876    0.9164    0.4630 C   0  0  0  0  0  0  0  0  0  0  0  0
    4.0038    2.1931    0.7672 C   0  0  0  0  0  0  0  0  0  0  0  0
    2.2933    2.4878    0.8358 S   0  0  0  0  0  0  0  0  0  0  0  0
    1.9661    0.8122    0.4356 C   0  0  0  0  0  0  0  0  0  0  0  0
    0.7764    0.3326    0.3177 N   0  0  0  0  0  0  0  0  0  0  0  0
    0.6920   -1.0031   -0.0078 C   0  0  0  0  0  0  0  0  0  0  0  0
   -0.7112   -1.5939   -0.1209 C   0  0  0  0  0  0  0  0  0  0  0  0
   -1.5269   -1.2148   -1.2884 N   0  0  0  0  0  0  0  0  0  0  0  0
   -0.8716   -1.5482   -2.5500 C   0  0  0  0  0  0  0  0  0  0  0  0
   -1.9639    0.1887   -1.2826 C   0  0  0  0  0  0  0  0  0  0  0  0
   -2.9107    0.5209   -0.1468 C   0  0  0  0  0  0  0  0  0  0  0  0
   -2.5450    1.4500    0.8383 C   0  0  0  0  0  0  0  0  0  0  0  0
   -3.4195    1.7551    1.8838 C   0  0  0  0  0  0  0  0  0  0  0  0
   -4.6643    1.1329    1.9489 C   0  0  0  0  0  0  0  0  0  0  0  0
   -5.7407    1.5082    3.2383 Cl  0  0  0  0  0  0  0  0  0  0  0  0
   -5.0427    0.2070    0.9793 C   0  0  0  0  0  0  0  0  0  0  0  0
   -4.1680   -0.0982   -0.0654 C   0  0  0  0  0  0  0  0  0  0  0  0
    1.7714   -1.7835   -0.1755 C   0  0  0  0  0  0  0  0  0  0  0  0
    3.1263   -1.2071   -0.0430 C   0  0  0  0  0  0  0  0  0  0  0  0
    4.0954   -1.9397   -0.2210 O   0  0  0  0  0  0  0  0  0  0  0  0
    3.1541    0.1314    0.2749 N   0  0  0  0  0  0  0  0  0  0  0  0
    5.8422   -0.0199   -0.6751 H   0  0  0  0  0  0  0  0  0  0  0  0
    5.8390   -0.4345    1.0605 H   0  0  0  0  0  0  0  0  0  0  0  0
    6.4237    1.1388    0.5201 H   0  0  0  0  0  0  0  0  0  0  0  0
    4.7308    2.9724    0.9544 H   0  0  0  0  0  0  0  0  0  0  0  0
   -0.6398   -2.6909   -0.1210 H   0  0  0  0  0  0  0  0  0  0  0  0
   -1.2530   -1.3739    0.8080 H   0  0  0  0  0  0  0  0  0  0  0  0
   -0.5721   -2.6022   -2.5666 H   0  0  0  0  0  0  0  0  0  0  0  0
   -1.5649   -1.4119   -3.3878 H   0  0  0  0  0  0  0  0  0  0  0  0
    0.0138   -0.9319   -2.7413 H   0  0  0  0  0  0  0  0  0  0  0  0
   -2.5228    0.3967   -2.2062 H   0  0  0  0  0  0  0  0  0  0  0  0
   -1.1167    0.8836   -1.3018 H   0  0  0  0  0  0  0  0  0  0  0  0
   -1.5704    1.9332    0.8008 H   0  0  0  0  0  0  0  0  0  0  0  0
   -3.1212    2.4739    2.6418 H   0  0  0  0  0  0  0  0  0  0  0  0
   -6.0113   -0.2820    1.0311 H   0  0  0  0  0  0  0  0  0  0  0  0
   -4.4614   -0.8286   -0.8168 H   0  0  0  0  0  0  0  0  0  0  0  0
    1.7130   -2.8372   -0.4160 H   0  0  0  0  0  0  0  0  0  0  0  0
  1  2  1  0
  2  3  2  0
  3  4  1  0
  4  5  1  0
  5  6  2  0
  6  7  1  0
  7  8  1  0
  8  9  1  0
  9 10  1  0
  9 11  1  0
 11 12  1  0
 12 13  2  0
 13 14  1  0
 14 15  2  0
 15 16  1  0
 15 17  1  0
 17 18  2  0
  7 19  2  0
 19 20  1  0
 20 21  2  0
 20 22  1  0
 22  2  1  0
 22  5  1  0
 18 12  1  0
  1 23  1  0
  1 24  1  0
  1 25  1  0
  3 26  1  0
  8 27  1  0
  8 28  1  0
 10 29  1  0
 10 30  1  0
 10 31  1  0
 11 32  1  0
 11 33  1  0
 13 34  1  0
 14 35  1  0
 17 36  1  0
 18 37  1  0
 19 38  1  0
M  END
$$$$
