
     RDKit          3D

 50 52  0  0  0  0  0  0  0  0999 V2000
    6.5668    1.7173   -1.3117 C   0  0  0  0  0  0  0  0  0  0  0  0
    5.7509    0.5071   -1.7311 C   0  0  0  0  0  0  0  0  0  0  0  0
    5.5579   -0.3749   -0.6299 O   0  0  0  0  0  0  0  0  0  0  0  0
    4.4396   -0.2507    0.1552 C   0  0  0  0  0  0  0  0  0  0  0  0
    3.5473    0.8272    0.1051 C   0  0  0  0  0  0  0  0  0  0  0  0
    2.4347    0.8798    0.9590 C   0  0  0  0  0  0  0  0  0  0  0  0
    1.4578    2.0253    0.8868 C   0  0  0  0  0  0  0  0  0  0  0  0
    0.2908    1.6442    0.1200 N   0  0  0  0  0  0  0  0  0  0  0  0
   -0.8949    1.3220    0.7308 C   0  0  0  0  0  0  0  0  0  0  0  0
   -1.0628    1.4280    1.9426 O   0  0  0  0  0  0  0  0  0  0  0  0
   -1.9824    0.8213   -0.1637 C   0  0  0  0  0  0  0  0  0  0  0  0
   -3.1757    0.5876    0.4012 C   0  0  0  0  0  0  0  0  0  0  0  0
   -4.2566    0.0980   -0.4418 C   0  0  0  0  0  0  0  0  0  0  0  0
   -5.5304   -0.1372    0.0981 C   0  0  0  0  0  0  0  0  0  0  0  0
   -6.5637   -0.6122   -0.7130 C   0  0  0  0  0  0  0  0  0  0  0  0
   -7.8437   -0.8803   -0.3125 O   0  0  0  0  0  0  0  0  0  0  0  0
   -8.1490   -0.6634    1.0594 C   0  0  0  0  0  0  0  0  0  0  0  0
   -6.3155   -0.8513   -2.0664 C   0  0  0  0  0  0  0  0  0  0  0  0
   -5.0502   -0.6197   -2.6074 C   0  0  0  0  0  0  0  0  0  0  0  0
   -4.0222   -0.1441   -1.7958 C   0  0  0  0  0  0  0  0  0  0  0  0
   -2.8173    0.0507   -2.4056 O   0  0  0  0  0  0  0  0  0  0  0  0
   -1.7394    0.5875   -1.6226 C   0  0  0  0  0  0  0  0  0  0  0  0
    2.2207   -0.1672    1.8618 C   0  0  0  0  0  0  0  0  0  0  0  0
    3.1080   -1.2433    1.9250 C   0  0  0  0  0  0  0  0  0  0  0  0
    4.2209   -1.2925    1.0801 C   0  0  0  0  0  0  0  0  0  0  0  0
    5.1430   -2.3105    1.0713 O   0  0  0  0  0  0  0  0  0  0  0  0
    4.9796   -3.3540    2.0207 C   0  0  0  0  0  0  0  0  0  0  0  0
    6.7729    2.3617   -2.1710 H   0  0  0  0  0  0  0  0  0  0  0  0
    6.0477    2.3065   -0.5500 H   0  0  0  0  0  0  0  0  0  0  0  0
    7.5192    1.4024   -0.8721 H   0  0  0  0  0  0  0  0  0  0  0  0
    4.8116    0.7845   -2.2218 H   0  0  0  0  0  0  0  0  0  0  0  0
    6.3240   -0.0523   -2.4792 H   0  0  0  0  0  0  0  0  0  0  0  0
    3.7048    1.6503   -0.5832 H   0  0  0  0  0  0  0  0  0  0  0  0
    1.9103    2.8847    0.3797 H   0  0  0  0  0  0  0  0  0  0  0  0
    1.1835    2.3538    1.8954 H   0  0  0  0  0  0  0  0  0  0  0  0
    0.4441    1.4688   -0.8596 H   0  0  0  0  0  0  0  0  0  0  0  0
   -3.3648    0.7510    1.4576 H   0  0  0  0  0  0  0  0  0  0  0  0
   -5.6924    0.0569    1.1532 H   0  0  0  0  0  0  0  0  0  0  0  0
   -7.5457   -1.3101    1.7052 H   0  0  0  0  0  0  0  0  0  0  0  0
   -9.2000   -0.9264    1.2137 H   0  0  0  0  0  0  0  0  0  0  0  0
   -8.0267    0.3908    1.3289 H   0  0  0  0  0  0  0  0  0  0  0  0
   -7.1142   -1.2221   -2.7042 H   0  0  0  0  0  0  0  0  0  0  0  0
   -4.8682   -0.8112   -3.6611 H   0  0  0  0  0  0  0  0  0  0  0  0
   -0.9027   -0.1098   -1.7451 H   0  0  0  0  0  0  0  0  0  0  0  0
   -1.4559    1.5318   -2.1014 H   0  0  0  0  0  0  0  0  0  0  0  0
    1.3551   -0.1484    2.5234 H   0  0  0  0  0  0  0  0  0  0  0  0
    2.8986   -2.0280    2.6439 H   0  0  0  0  0  0  0  0  0  0  0  0
    5.0304   -2.9695    3.0447 H   0  0  0  0  0  0  0  0  0  0  0  0
    5.8069   -4.0580    1.8895 H   0  0  0  0  0  0  0  0  0  0  0  0
    4.0476   -3.9021    1.8482 H   0  0  0  0  0  0  0  0  0  0  0  0
  1  2  1  0
  2  3  1  0
  3  4  1  0
  4  5  2  0
  5  6  1  0
  6  7  1  0
  7  8  1  0
  8  9  1  0
  9 10  2  0
  9 11  1  0
 11 12  2  0
 12 13  1  0
 13 14  2  0
 14 15  1  0
 15 16  1  0
 16 17  1  0
 15 18  2  0
 18 19  1  0
 19 20  2  0
 20 21  1  0
 21 22  1  0
  6 23  2  0
 23 24  1  0
 24 25  2  0
 25 26  1  0
 26 27  1  0
 25  4  1  0
 22 11  1  0
 20 13  1  0
  1 28  1  0
  1 29  1  0
  1 30  1  0
  2 31  1  0
  2 32  1  0
  5 33  1  0
  7 34  1  0
  7 35  1  0
  8 36  1  0
 12 37  1  0
 14 38  1  0
 17 39  1  0
 17 40  1  0
 17 41  1  0
 18 42  1  0
 19 43  1  0
 22 44  1  0
 22 45  1  0
 23 46  1  0
 24 47  1  0
 27 48  1  0
 27 49  1  0
 27 50  1  0
M  END
$$$$
