
     RDKit          3D

 46 48  0  0  0  0  0  0  0  0999 V2000
    6.4650    1.6453   -1.2149 C   0  0  0  0  0  0  0  0  0  0  0  0
    5.1324    1.1795   -1.3801 O   0  0  0  0  0  0  0  0  0  0  0  0
    4.4388    0.8605   -0.2438 C   0  0  0  0  0  0  0  0  0  0  0  0
    4.9149    0.9777    1.0617 C   0  0  0  0  0  0  0  0  0  0  0  0
    4.0963    0.6267    2.1359 C   0  0  0  0  0  0  0  0  0  0  0  0
    2.8027    0.1549    1.9075 C   0  0  0  0  0  0  0  0  0  0  0  0
    2.3158    0.0212    0.6026 C   0  0  0  0  0  0  0  0  0  0  0  0
    0.9939   -0.4461    0.4521 N   0  0  0  0  0  0  0  0  0  0  0  0
    0.3802   -0.8635   -0.7069 C   0  0  0  0  0  0  0  0  0  0  0  0
    0.9553   -1.0622   -1.7739 O   0  0  0  0  0  0  0  0  0  0  0  0
   -0.9894   -1.1104   -0.5668 N   0  0  0  0  0  0  0  0  0  0  0  0
   -1.6720   -1.6838   -1.7308 C   0  0  0  0  0  0  0  0  0  0  0  0
   -2.1927   -0.5807   -2.6397 C   0  0  0  0  0  0  0  0  0  0  0  0
   -2.8560    0.4480   -1.8533 N   0  0  0  0  0  0  0  0  0  0  0  0
   -3.6563    1.4351   -2.3576 C   0  0  0  0  0  0  0  0  0  0  0  0
   -3.9752    2.2847   -1.3232 C   0  0  0  0  0  0  0  0  0  0  0  0
   -3.3465    1.7850   -0.1574 C   0  0  0  0  0  0  0  0  0  0  0  0
   -2.6834    0.6170   -0.4953 C   0  0  0  0  0  0  0  0  0  0  0  0
   -1.8588   -0.3357    0.3488 C   0  0  0  0  0  0  0  0  0  0  0  0
   -2.7369   -1.2727    1.2311 C   0  0  0  0  0  0  0  0  0  0  0  0
   -1.8821   -2.3326    1.9419 C   0  0  0  0  0  0  0  0  0  0  0  0
   -3.5304   -0.5041    2.2961 C   0  0  0  0  0  0  0  0  0  0  0  0
    3.1396    0.3848   -0.4653 C   0  0  0  0  0  0  0  0  0  0  0  0
    7.0933    0.8854   -0.7385 H   0  0  0  0  0  0  0  0  0  0  0  0
    6.4875    2.5858   -0.6546 H   0  0  0  0  0  0  0  0  0  0  0  0
    6.8766    1.8411   -2.2097 H   0  0  0  0  0  0  0  0  0  0  0  0
    5.9136    1.3421    1.2767 H   0  0  0  0  0  0  0  0  0  0  0  0
    4.4671    0.7226    3.1532 H   0  0  0  0  0  0  0  0  0  0  0  0
    2.1861   -0.1084    2.7625 H   0  0  0  0  0  0  0  0  0  0  0  0
    0.5173   -0.7019    1.3016 H   0  0  0  0  0  0  0  0  0  0  0  0
   -0.9997   -2.3465   -2.2870 H   0  0  0  0  0  0  0  0  0  0  0  0
   -2.4969   -2.3077   -1.3694 H   0  0  0  0  0  0  0  0  0  0  0  0
   -1.3736   -0.0819   -3.1696 H   0  0  0  0  0  0  0  0  0  0  0  0
   -2.9083   -0.9740   -3.3684 H   0  0  0  0  0  0  0  0  0  0  0  0
   -3.9128    1.4709   -3.4083 H   0  0  0  0  0  0  0  0  0  0  0  0
   -4.5809    3.1780   -1.4032 H   0  0  0  0  0  0  0  0  0  0  0  0
   -3.3837    2.2293    0.8291 H   0  0  0  0  0  0  0  0  0  0  0  0
   -1.2431    0.2858    1.0084 H   0  0  0  0  0  0  0  0  0  0  0  0
   -3.4641   -1.8011    0.6015 H   0  0  0  0  0  0  0  0  0  0  0  0
   -1.3690   -2.9824    1.2262 H   0  0  0  0  0  0  0  0  0  0  0  0
   -1.1279   -1.8666    2.5850 H   0  0  0  0  0  0  0  0  0  0  0  0
   -2.5065   -2.9778    2.5698 H   0  0  0  0  0  0  0  0  0  0  0  0
   -4.0456   -1.1951    2.9727 H   0  0  0  0  0  0  0  0  0  0  0  0
   -4.3022    0.1251    1.8450 H   0  0  0  0  0  0  0  0  0  0  0  0
   -2.8739    0.1308    2.9004 H   0  0  0  0  0  0  0  0  0  0  0  0
    2.7914    0.3177   -1.4920 H   0  0  0  0  0  0  0  0  0  0  0  0
  1  2  1  0
  2  3  1  0
  3  4  2  0
  4  5  1  0
  5  6  2  0
  6  7  1  0
  7  8  1  0
  8  9  1  0
  9 10  2  0
  9 11  1  0
 11 12  1  0
 12 13  1  0
 13 14  1  0
 14 15  1  0
 15 16  2  0
 16 17  1  0
 17 18  2  0
 18 19  1  0
 19 20  1  0
 20 21  1  0
 20 22  1  0
  7 23  2  0
 23  3  1  0
 19 11  1  0
 18 14  1  0
  1 24  1  0
  1 25  1  0
  1 26  1  0
  4 27  1  0
  5 28  1  0
  6 29  1  0
  8 30  1  0
 12 31  1  0
 12 32  1  0
 13 33  1  0
 13 34  1  0
 15 35  1  0
 16 36  1  0
 17 37  1  0
 19 38  1  0
 20 39  1  0
 21 40  1  0
 21 41  1  0
 21 42  1  0
 22 43  1  0
 22 44  1  0
 22 45  1  0
 23 46  1  0
M  END
$$$$
