
     RDKit          3D

 43 45  0  0  0  0  0  0  0  0999 V2000
   -6.1650   -0.9298   -2.3421 C   0  0  0  0  0  0  0  0  0  0  0  0
   -4.9990   -0.7026   -1.5605 O   0  0  0  0  0  0  0  0  0  0  0  0
   -5.1795   -0.5198   -0.2077 C   0  0  0  0  0  0  0  0  0  0  0  0
   -6.4129   -0.5730    0.4483 C   0  0  0  0  0  0  0  0  0  0  0  0
   -6.4809   -0.3716    1.8282 C   0  0  0  0  0  0  0  0  0  0  0  0
   -5.3212   -0.1176    2.5560 C   0  0  0  0  0  0  0  0  0  0  0  0
   -4.0847   -0.0624    1.9098 C   0  0  0  0  0  0  0  0  0  0  0  0
   -4.0030   -0.2639    0.5305 C   0  0  0  0  0  0  0  0  0  0  0  0
   -2.7912   -0.2215   -0.1929 N   0  0  0  0  0  0  0  0  0  0  0  0
   -1.5152   -0.0692    0.2833 C   0  0  0  0  0  0  0  0  0  0  0  0
   -1.1657    0.0283    1.4529 O   0  0  0  0  0  0  0  0  0  0  0  0
   -0.6001   -0.0486   -0.7452 N   0  0  0  0  0  0  0  0  0  0  0  0
    0.7948    0.1868   -0.4438 C   0  0  0  0  0  0  0  0  0  0  0  0
    1.5778    0.2395   -1.6958 C   0  0  0  0  0  0  0  0  0  0  0  0
    1.0592    0.2537   -2.9130 N   0  0  0  0  0  0  0  0  0  0  0  0
    2.1051    0.2694   -3.7819 N   0  0  0  0  0  0  0  0  0  0  0  0
    3.2562    0.2726   -3.1353 N   0  0  0  0  0  0  0  0  0  0  0  0
    2.9644    0.2802   -1.8055 N   0  0  0  0  0  0  0  0  0  0  0  0
    4.0194    0.3360   -0.8472 C   0  0  0  0  0  0  0  0  0  0  0  0
    3.8001    0.4405    0.5309 C   0  0  0  0  0  0  0  0  0  0  0  0
    4.8825    0.4939    1.4204 C   0  0  0  0  0  0  0  0  0  0  0  0
    6.1992    0.4589    0.9539 C   0  0  0  0  0  0  0  0  0  0  0  0
    7.3572    0.4959    1.9067 C   0  0  0  0  0  0  0  0  0  0  0  0
    6.4241    0.3522   -0.4195 C   0  0  0  0  0  0  0  0  0  0  0  0
    5.3484    0.2945   -1.3107 C   0  0  0  0  0  0  0  0  0  0  0  0
   -6.6614   -1.8611   -2.0491 H   0  0  0  0  0  0  0  0  0  0  0  0
   -6.8514   -0.0784   -2.2852 H   0  0  0  0  0  0  0  0  0  0  0  0
   -5.8509   -1.0348   -3.3847 H   0  0  0  0  0  0  0  0  0  0  0  0
   -7.3389   -0.7697   -0.0809 H   0  0  0  0  0  0  0  0  0  0  0  0
   -7.4409   -0.4143    2.3374 H   0  0  0  0  0  0  0  0  0  0  0  0
   -5.3741    0.0374    3.6307 H   0  0  0  0  0  0  0  0  0  0  0  0
   -3.2024    0.1398    2.5079 H   0  0  0  0  0  0  0  0  0  0  0  0
   -2.8954   -0.4337   -1.1779 H   0  0  0  0  0  0  0  0  0  0  0  0
   -0.9270    0.2761   -1.6459 H   0  0  0  0  0  0  0  0  0  0  0  0
    0.8646    1.1363    0.0972 H   0  0  0  0  0  0  0  0  0  0  0  0
    1.1242   -0.6337    0.2007 H   0  0  0  0  0  0  0  0  0  0  0  0
    2.8187    0.4964    0.9833 H   0  0  0  0  0  0  0  0  0  0  0  0
    4.6836    0.5686    2.4889 H   0  0  0  0  0  0  0  0  0  0  0  0
    8.1135    1.2073    1.5613 H   0  0  0  0  0  0  0  0  0  0  0  0
    7.0410    0.8124    2.9059 H   0  0  0  0  0  0  0  0  0  0  0  0
    7.8085   -0.4976    1.9870 H   0  0  0  0  0  0  0  0  0  0  0  0
    7.4400    0.3139   -0.8092 H   0  0  0  0  0  0  0  0  0  0  0  0
    5.5781    0.2129   -2.3728 H   0  0  0  0  0  0  0  0  0  0  0  0
  1  2  1  0
  2  3  1  0
  3  4  2  0
  4  5  1  0
  5  6  2  0
  6  7  1  0
  7  8  2  0
  8  9  1  0
  9 10  1  0
 10 11  2  0
 10 12  1  0
 12 13  1  0
 13 14  1  0
 14 15  2  0
 15 16  1  0
 16 17  2  0
 17 18  1  0
 18 19  1  0
 19 20  2  0
 20 21  1  0
 21 22  2  0
 22 23  1  0
 22 24  1  0
 24 25  2  0
  8  3  1  0
 18 14  1  0
 25 19  1  0
  1 26  1  0
  1 27  1  0
  1 28  1  0
  4 29  1  0
  5 30  1  0
  6 31  1  0
  7 32  1  0
  9 33  1  0
 12 34  1  0
 13 35  1  0
 13 36  1  0
 20 37  1  0
 21 38  1  0
 23 39  1  0
 23 40  1  0
 23 41  1  0
 24 42  1  0
 25 43  1  0
M  END
$$$$
