
     RDKit          3D

 61 64  0  0  0  0  0  0  0  0999 V2000
    8.1377   -1.1579   -3.3342 C   0  0  0  0  0  0  0  0  0  0  0  0
    6.7128   -0.8758   -2.9333 C   0  0  0  0  0  0  0  0  0  0  0  0
    6.0463    0.1915   -3.6547 C   0  0  0  0  0  0  0  0  0  0  0  0
    4.7590    0.5005   -3.4298 C   0  0  0  0  0  0  0  0  0  0  0  0
    4.1039    1.6180   -4.1965 C   0  0  0  0  0  0  0  0  0  0  0  0
    4.0383   -0.2106   -2.4692 N   0  0  0  0  0  0  0  0  0  0  0  0
    2.6372    0.0916   -2.1726 C   0  0  0  0  0  0  0  0  0  0  0  0
    2.4630    1.1630   -1.0855 C   0  0  0  0  0  0  0  0  0  0  0  0
    3.3740    1.9088   -0.7391 O   0  0  0  0  0  0  0  0  0  0  0  0
    1.1594    1.1949   -0.6155 N   0  0  0  0  0  0  0  0  0  0  0  0
    0.5712    2.0849    0.3169 C   0  0  0  0  0  0  0  0  0  0  0  0
    1.2734    3.1456    0.8987 C   0  0  0  0  0  0  0  0  0  0  0  0
    0.6272    4.0514    1.7479 C   0  0  0  0  0  0  0  0  0  0  0  0
   -0.7326    3.9185    2.0194 C   0  0  0  0  0  0  0  0  0  0  0  0
   -1.4452    2.8567    1.4677 C   0  0  0  0  0  0  0  0  0  0  0  0
   -0.7918    1.9164    0.6564 C   0  0  0  0  0  0  0  0  0  0  0  0
   -1.5712    0.7906    0.0806 C   0  0  0  0  0  0  0  0  0  0  0  0
   -1.4578    0.5967   -1.1321 O   0  0  0  0  0  0  0  0  0  0  0  0
   -2.3512   -0.0145    0.9022 N   0  0  0  0  0  0  0  0  0  0  0  0
   -3.1977   -1.0338    0.2605 C   0  0  0  0  0  0  0  0  0  0  0  0
   -3.5828   -2.1862    1.2052 C   0  0  0  0  0  0  0  0  0  0  0  0
   -4.1817   -1.6990    2.4663 N   0  0  0  0  0  0  0  0  0  0  0  0
   -5.5866   -1.6926    2.4861 C   0  0  0  0  0  0  0  0  0  0  0  0
   -6.2595   -1.4845    3.6933 C   0  0  0  0  0  0  0  0  0  0  0  0
   -7.6524   -1.4952    3.7295 C   0  0  0  0  0  0  0  0  0  0  0  0
   -8.3548   -1.7187    2.5583 C   0  0  0  0  0  0  0  0  0  0  0  0
   -7.6279   -1.9216    1.4008 C   0  0  0  0  0  0  0  0  0  0  0  0
   -6.2763   -1.9137    1.3446 N   0  0  0  0  0  0  0  0  0  0  0  0
   -3.5855   -0.4618    3.0154 C   0  0  0  0  0  0  0  0  0  0  0  0
   -2.2268   -0.1368    2.3646 C   0  0  0  0  0  0  0  0  0  0  0  0
    4.6341   -1.1856   -1.6584 C   0  0  0  0  0  0  0  0  0  0  0  0
    4.0398   -1.7402   -0.7350 O   0  0  0  0  0  0  0  0  0  0  0  0
    6.0553   -1.5397   -1.9625 C   0  0  0  0  0  0  0  0  0  0  0  0
    6.6596   -2.5744   -1.1968 C   0  0  0  0  0  0  0  0  0  0  0  0
    7.2052   -3.4151   -0.6090 N   0  0  0  0  0  0  0  0  0  0  0  0
    8.3210   -0.8731   -4.3772 H   0  0  0  0  0  0  0  0  0  0  0  0
    8.3780   -2.2252   -3.2646 H   0  0  0  0  0  0  0  0  0  0  0  0
    8.8327   -0.5954   -2.6971 H   0  0  0  0  0  0  0  0  0  0  0  0
    6.6246    0.7512   -4.3866 H   0  0  0  0  0  0  0  0  0  0  0  0
    3.2122    1.2654   -4.7217 H   0  0  0  0  0  0  0  0  0  0  0  0
    3.8317    2.4381   -3.5277 H   0  0  0  0  0  0  0  0  0  0  0  0
    4.7703    2.0299   -4.9619 H   0  0  0  0  0  0  0  0  0  0  0  0
    2.1115    0.4146   -3.0759 H   0  0  0  0  0  0  0  0  0  0  0  0
    2.1385   -0.8272   -1.8371 H   0  0  0  0  0  0  0  0  0  0  0  0
    0.4970    0.5533   -1.0556 H   0  0  0  0  0  0  0  0  0  0  0  0
    2.3278    3.3137    0.6944 H   0  0  0  0  0  0  0  0  0  0  0  0
    1.1908    4.8788    2.1756 H   0  0  0  0  0  0  0  0  0  0  0  0
   -1.2366    4.6486    2.6476 H   0  0  0  0  0  0  0  0  0  0  0  0
   -2.5108    2.7670    1.6626 H   0  0  0  0  0  0  0  0  0  0  0  0
   -2.6850   -1.4393   -0.6183 H   0  0  0  0  0  0  0  0  0  0  0  0
   -4.0959   -0.5147   -0.0954 H   0  0  0  0  0  0  0  0  0  0  0  0
   -2.6698   -2.7368    1.4741 H   0  0  0  0  0  0  0  0  0  0  0  0
   -4.2090   -2.9218    0.6832 H   0  0  0  0  0  0  0  0  0  0  0  0
   -5.7026   -1.3418    4.6135 H   0  0  0  0  0  0  0  0  0  0  0  0
   -8.1784   -1.3414    4.6669 H   0  0  0  0  0  0  0  0  0  0  0  0
   -9.4377   -1.7440    2.5468 H   0  0  0  0  0  0  0  0  0  0  0  0
   -8.1250   -2.1097    0.4537 H   0  0  0  0  0  0  0  0  0  0  0  0
   -4.2483    0.3969    2.8438 H   0  0  0  0  0  0  0  0  0  0  0  0
   -3.4484   -0.5743    4.0963 H   0  0  0  0  0  0  0  0  0  0  0  0
   -1.5141   -0.9532    2.5504 H   0  0  0  0  0  0  0  0  0  0  0  0
   -1.7900    0.7540    2.8202 H   0  0  0  0  0  0  0  0  0  0  0  0
  1  2  1  0
  2  3  1  0
  3  4  2  0
  4  5  1  0
  4  6  1  0
  6  7  1  0
  7  8  1  0
  8  9  2  0
  8 10  1  0
 10 11  1  0
 11 12  2  0
 12 13  1  0
 13 14  2  0
 14 15  1  0
 15 16  2  0
 16 17  1  0
 17 18  2  0
 17 19  1  0
 19 20  1  0
 20 21  1  0
 21 22  1  0
 22 23  1  0
 23 24  2  0
 24 25  1  0
 25 26  2  0
 26 27  1  0
 27 28  2  0
 22 29  1  0
 29 30  1  0
  6 31  1  0
 31 32  2  0
 31 33  1  0
 33 34  1  0
 34 35  3  0
 33  2  2  0
 16 11  1  0
 30 19  1  0
 28 23  1  0
  1 36  1  0
  1 37  1  0
  1 38  1  0
  3 39  1  0
  5 40  1  0
  5 41  1  0
  5 42  1  0
  7 43  1  0
  7 44  1  0
 10 45  1  0
 12 46  1  0
 13 47  1  0
 14 48  1  0
 15 49  1  0
 20 50  1  0
 20 51  1  0
 21 52  1  0
 21 53  1  0
 24 54  1  0
 25 55  1  0
 26 56  1  0
 27 57  1  0
 29 58  1  0
 29 59  1  0
 30 60  1  0
 30 61  1  0
M  END
$$$$
