
     RDKit          3D

 30 30  0  0  0  0  0  0  0  0999 V2000
   -1.3353    1.3753   -1.1177 C   0  0  0  0  0  0  0  0  0  0  0  0
   -1.7217    0.2103   -0.1851 C   0  0  0  0  0  0  0  0  0  0  0  0
   -0.7079   -0.9647   -0.3005 C   0  0  0  0  0  0  0  0  0  0  0  0
    0.7524   -0.6236   -0.0785 C   0  0  0  0  0  0  0  0  0  0  0  0
    1.2675   -0.4868    1.2213 C   0  0  0  0  0  0  0  0  0  0  0  0
    2.6127   -0.1685    1.4324 C   0  0  0  0  0  0  0  0  0  0  0  0
    3.4453    0.0113    0.3358 C   0  0  0  0  0  0  0  0  0  0  0  0
    4.7693    0.3249    0.4766 O   0  0  0  0  0  0  0  0  0  0  0  0
    2.9450   -0.1252   -0.9557 C   0  0  0  0  0  0  0  0  0  0  0  0
    3.7716    0.0538   -2.0286 O   0  0  0  0  0  0  0  0  0  0  0  0
    1.6111   -0.4413   -1.1734 C   0  0  0  0  0  0  0  0  0  0  0  0
   -1.8133    0.7905    1.1980 N   0  0  0  0  0  0  0  0  0  0  0  0
   -2.2173   -0.2072    2.1767 N   0  0  0  0  0  0  0  0  0  0  0  0
   -3.1250   -0.2552   -0.6413 C   0  0  0  0  0  0  0  0  0  0  0  0
   -4.1874   -0.0559   -0.0655 O   0  0  0  0  0  0  0  0  0  0  0  0
   -3.1349   -0.8935   -1.8314 O   0  0  0  0  0  0  0  0  0  0  0  0
   -0.4141    1.8725   -0.7935 H   0  0  0  0  0  0  0  0  0  0  0  0
   -2.1241    2.1371   -1.1536 H   0  0  0  0  0  0  0  0  0  0  0  0
   -1.1836    1.0262   -2.1459 H   0  0  0  0  0  0  0  0  0  0  0  0
   -0.9840   -1.7778    0.3850 H   0  0  0  0  0  0  0  0  0  0  0  0
   -0.7896   -1.4251   -1.2950 H   0  0  0  0  0  0  0  0  0  0  0  0
    0.6120   -0.6242    2.0793 H   0  0  0  0  0  0  0  0  0  0  0  0
    2.9793   -0.0661    2.4480 H   0  0  0  0  0  0  0  0  0  0  0  0
    4.9596    0.3870    1.4284 H   0  0  0  0  0  0  0  0  0  0  0  0
    4.6401    0.2615   -1.6303 H   0  0  0  0  0  0  0  0  0  0  0  0
    1.2487   -0.5417   -2.1925 H   0  0  0  0  0  0  0  0  0  0  0  0
   -2.4782    1.5733    1.1679 H   0  0  0  0  0  0  0  0  0  0  0  0
   -3.2203   -0.4214    2.0945 H   0  0  0  0  0  0  0  0  0  0  0  0
   -2.0964    0.1526    3.1284 H   0  0  0  0  0  0  0  0  0  0  0  0
   -4.0815   -1.0982   -1.9839 H   0  0  0  0  0  0  0  0  0  0  0  0
  1  2  1  0
  2  3  1  0
  3  4  1  0
  4  5  2  0
  5  6  1  0
  6  7  2  0
  7  8  1  0
  7  9  1  0
  9 10  1  0
  9 11  2  0
  2 12  1  0
 12 13  1  0
  2 14  1  0
 14 15  2  0
 14 16  1  0
 11  4  1  0
  1 17  1  0
  1 18  1  0
  1 19  1  0
  3 20  1  0
  3 21  1  0
  5 22  1  0
  6 23  1  0
  8 24  1  0
 10 25  1  0
 11 26  1  0
 12 27  1  0
 13 28  1  0
 13 29  1  0
 16 30  1  0
M  END
$$$$
