
     RDKit          3D

 51 51  0  0  0  0  0  0  0  0999 V2000
    6.8455    0.1284    1.8426 C   0  0  0  0  0  0  0  0  0  0  0  0
    6.5811    0.1767    0.4147 N   0  0  0  0  0  0  0  0  0  0  0  0
    7.6657    0.4100   -0.5189 C   0  0  0  0  0  0  0  0  0  0  0  0
    5.2523    0.0132   -0.0166 C   0  0  0  0  0  0  0  0  0  0  0  0
    4.2083    0.3420    0.8049 C   0  0  0  0  0  0  0  0  0  0  0  0
    2.8834    0.1869    0.3944 C   0  0  0  0  0  0  0  0  0  0  0  0
    1.7617    0.0558    0.0471 C   0  0  0  0  0  0  0  0  0  0  0  0
    0.4288   -0.1082   -0.3857 C   0  0  0  0  0  0  0  0  0  0  0  0
   -0.5863    0.2619    0.4580 C   0  0  0  0  0  0  0  0  0  0  0  0
   -1.9773    0.1123    0.0900 C   0  0  0  0  0  0  0  0  0  0  0  0
   -2.9322    0.4906    0.9031 N   0  0  0  0  0  4  0  0  0  0  0  0
   -2.7477    1.0896    2.2169 C   0  0  0  0  0  0  0  0  0  0  0  0
   -4.2066    0.1728    0.3698 C   0  0  0  0  0  0  0  0  0  0  0  0
   -5.4814    0.3676    0.9144 C   0  0  0  0  0  0  0  0  0  0  0  0
   -6.6019   -0.0774    0.2015 C   0  0  0  0  0  0  0  0  0  0  0  0
   -6.3826   -0.6818   -0.9973 C   0  0  0  0  0  0  0  0  0  0  0  0
   -5.1559   -0.8914   -1.5629 C   0  0  0  0  0  0  0  0  0  0  0  0
   -4.0544   -0.4389   -0.8366 C   0  0  0  0  0  0  0  0  0  0  0  0
   -2.5915   -0.4542   -1.1322 C   0  0  0  0  0  0  0  0  0  0  0  0
   -2.1366   -1.8604   -1.4181 C   0  0  0  0  0  0  0  0  0  0  0  0
   -2.3245    0.4516   -2.3058 C   0  0  0  0  0  0  0  0  0  0  0  0
   -0.5760   -0.5327    1.1959 F   0  0  0  0  0  0  0  0  0  0  0  0
    0.0078   -0.0088   -0.0220 B   0  0  0  0  0  4  0  0  0  0  0  0
    1.1704   -0.8042   -0.3751 F   0  0  0  0  0  0  0  0  0  0  0  0
   -1.0101   -0.0221   -1.0477 F   0  0  0  0  0  0  0  0  0  0  0  0
    0.4079    1.3678    0.2489 F   0  0  0  0  0  0  0  0  0  0  0  0
    6.1059   -0.5514    2.2858 H   0  0  0  0  0  0  0  0  0  0  0  0
    7.8823   -0.1234    2.0667 H   0  0  0  0  0  0  0  0  0  0  0  0
    6.5789    1.1684    2.2126 H   0  0  0  0  0  0  0  0  0  0  0  0
    8.0102    1.4723   -0.3480 H   0  0  0  0  0  0  0  0  0  0  0  0
    8.5104   -0.2270   -0.2506 H   0  0  0  0  0  0  0  0  0  0  0  0
    7.3881    0.2853   -1.5660 H   0  0  0  0  0  0  0  0  0  0  0  0
    4.9628   -0.3621   -0.9716 H   0  0  0  0  0  0  0  0  0  0  0  0
    4.5528    0.7073    1.7518 H   0  0  0  0  0  0  0  0  0  0  0  0
    2.3859    0.6769    1.6118 H   0  0  0  0  0  0  0  0  0  0  0  0
    2.2561   -0.4310   -1.1720 H   0  0  0  0  0  0  0  0  0  0  0  0
    0.0504   -0.5007   -1.3132 H   0  0  0  0  0  0  0  0  0  0  0  0
   -0.2494    0.6641    1.3984 H   0  0  0  0  0  0  0  0  0  0  0  0
   -1.7426    0.9561    2.6438 H   0  0  0  0  0  0  0  0  0  0  0  0
   -3.4802    0.5697    2.9117 H   0  0  0  0  0  0  0  0  0  0  0  0
   -3.0852    2.1442    2.1906 H   0  0  0  0  0  0  0  0  0  0  0  0
   -5.6211    0.8556    1.8648 H   0  0  0  0  0  0  0  0  0  0  0  0
   -7.5959    0.0612    0.5954 H   0  0  0  0  0  0  0  0  0  0  0  0
   -7.2495   -1.0522   -1.5909 H   0  0  0  0  0  0  0  0  0  0  0  0
   -4.9749   -1.3646   -2.5107 H   0  0  0  0  0  0  0  0  0  0  0  0
   -3.0674   -2.4715   -1.6191 H   0  0  0  0  0  0  0  0  0  0  0  0
   -1.6911   -2.3153   -0.5044 H   0  0  0  0  0  0  0  0  0  0  0  0
   -1.5472   -1.9227   -2.3274 H   0  0  0  0  0  0  0  0  0  0  0  0
   -1.4980    0.0656   -2.9052 H   0  0  0  0  0  0  0  0  0  0  0  0
   -2.0642    1.4681   -1.9542 H   0  0  0  0  0  0  0  0  0  0  0  0
   -3.2651    0.4801   -2.9210 H   0  0  0  0  0  0  0  0  0  0  0  0
  1  2  1  0
  2  3  1  0
  2  4  1  0
  4  5  2  0
  5  6  1  0
  6  7  2  0
  7  8  1  0
  8  9  2  0
  9 10  1  0
 10 11  2  0
 11 12  1  0
 11 13  1  0
 13 14  2  0
 14 15  1  0
 15 16  2  0
 16 17  1  0
 17 18  2  0
 18 19  1  0
 19 20  1  0
 19 21  1  0
 22 23  1  0
 23 24  1  0
 23 25  1  0
 23 26  1  0
 19 10  1  0
 18 13  1  0
  1 27  1  0
  1 28  1  0
  1 29  1  0
  3 30  1  0
  3 31  1  0
  3 32  1  0
  4 33  1  0
  5 34  1  0
  6 35  1  0
  7 36  1  0
  8 37  1  0
  9 38  1  0
 12 39  1  0
 12 40  1  0
 12 41  1  0
 14 42  1  0
 15 43  1  0
 16 44  1  0
 17 45  1  0
 20 46  1  0
 20 47  1  0
 20 48  1  0
 21 49  1  0
 21 50  1  0
 21 51  1  0
M  CHG  2  11   1  23  -1
M  END
$$$$
