
     RDKit          3D

 42 45  0  0  0  0  0  0  0  0999 V2000
    5.5872   -1.0887   -0.5661 C   0  0  0  0  0  0  0  0  0  0  0  0
    4.7509   -2.2129   -0.8074 O   0  0  0  0  0  0  0  0  0  0  0  0
    3.4018   -2.0187   -0.6878 C   0  0  0  0  0  0  0  0  0  0  0  0
    2.6279   -3.1489   -0.9400 C   0  0  0  0  0  0  0  0  0  0  0  0
    1.2423   -3.0871   -0.8290 C   0  0  0  0  0  0  0  0  0  0  0  0
    0.6205   -1.8860   -0.4773 C   0  0  0  0  0  0  0  0  0  0  0  0
    1.3652   -0.7221   -0.2609 C   0  0  0  0  0  0  0  0  0  0  0  0
    0.8182    0.4926    0.1699 N   0  0  0  0  0  0  0  0  0  0  0  0
   -0.5780    0.8187   -0.0680 C   0  0  0  0  0  0  0  0  0  0  0  0
   -0.7187    2.2105   -0.6720 C   0  0  0  0  0  0  0  0  0  0  0  0
   -0.1899    2.6383   -1.8405 N   0  0  0  0  0  0  0  0  0  0  0  0
   -0.4685    3.9293   -2.1520 C   0  0  0  0  0  0  0  0  0  0  0  0
   -1.2284    4.7904   -1.3528 C   0  0  0  0  0  0  0  0  0  0  0  0
   -1.7435    4.3179   -0.1463 C   0  0  0  0  0  0  0  0  0  0  0  0
   -1.4667    3.0064    0.1762 C   0  0  0  0  0  0  0  0  0  0  0  0
   -1.8157    2.2228    1.3581 C   0  0  0  0  0  0  0  0  0  0  0  0
   -2.5001    2.6429    2.2715 O   0  0  0  0  0  0  0  0  0  0  0  0
   -1.2235    0.9836    1.2177 N   0  0  0  0  0  0  0  0  0  0  0  0
   -1.4918   -0.1242    2.1060 C   0  0  0  0  0  0  0  0  0  0  0  0
   -2.4895   -1.0715    1.5310 C   0  0  0  0  0  0  0  0  0  0  0  0
   -2.7050   -2.4227    1.7191 C   0  0  0  0  0  0  0  0  0  0  0  0
   -3.8032   -2.7741    0.8983 C   0  0  0  0  0  0  0  0  0  0  0  0
   -4.1928   -1.6183    0.2646 C   0  0  0  0  0  0  0  0  0  0  0  0
   -3.4014   -0.5813    0.6381 O   0  0  0  0  0  0  0  0  0  0  0  0
    2.7681   -0.8219   -0.3373 C   0  0  0  0  0  0  0  0  0  0  0  0
    5.3827   -0.2834   -1.2795 H   0  0  0  0  0  0  0  0  0  0  0  0
    6.6241   -1.4063   -0.7118 H   0  0  0  0  0  0  0  0  0  0  0  0
    5.4887   -0.7382    0.4666 H   0  0  0  0  0  0  0  0  0  0  0  0
    3.1091   -4.0848   -1.2118 H   0  0  0  0  0  0  0  0  0  0  0  0
    0.6437   -3.9763   -1.0082 H   0  0  0  0  0  0  0  0  0  0  0  0
   -0.4595   -1.8976   -0.3808 H   0  0  0  0  0  0  0  0  0  0  0  0
    1.4122    1.2704   -0.1120 H   0  0  0  0  0  0  0  0  0  0  0  0
   -1.1335    0.1186   -0.6992 H   0  0  0  0  0  0  0  0  0  0  0  0
   -0.0525    4.2750   -3.0956 H   0  0  0  0  0  0  0  0  0  0  0  0
   -1.4079    5.8131   -1.6691 H   0  0  0  0  0  0  0  0  0  0  0  0
   -2.3288    4.9470    0.5153 H   0  0  0  0  0  0  0  0  0  0  0  0
   -1.8776    0.2610    3.0564 H   0  0  0  0  0  0  0  0  0  0  0  0
   -0.5486   -0.6393    2.3141 H   0  0  0  0  0  0  0  0  0  0  0  0
   -2.1370   -3.0719    2.3714 H   0  0  0  0  0  0  0  0  0  0  0  0
   -4.2602   -3.7473    0.7867 H   0  0  0  0  0  0  0  0  0  0  0  0
   -4.9749   -1.3779   -0.4423 H   0  0  0  0  0  0  0  0  0  0  0  0
    3.3547    0.0631   -0.1133 H   0  0  0  0  0  0  0  0  0  0  0  0
  1  2  1  0
  2  3  1  0
  3  4  2  0
  4  5  1  0
  5  6  2  0
  6  7  1  0
  7  8  1  0
  8  9  1  0
  9 10  1  0
 10 11  2  0
 11 12  1  0
 12 13  2  0
 13 14  1  0
 14 15  2  0
 15 16  1  0
 16 17  2  0
 16 18  1  0
 18 19  1  0
 19 20  1  0
 20 21  2  0
 21 22  1  0
 22 23  2  0
 23 24  1  0
  7 25  2  0
 25  3  1  0
 18  9  1  0
 24 20  1  0
 15 10  1  0
  1 26  1  0
  1 27  1  0
  1 28  1  0
  4 29  1  0
  5 30  1  0
  6 31  1  0
  8 32  1  0
  9 33  1  0
 12 34  1  0
 13 35  1  0
 14 36  1  0
 19 37  1  0
 19 38  1  0
 21 39  1  0
 22 40  1  0
 23 41  1  0
 25 42  1  0
M  END
$$$$
