
     RDKit          3D

 61 68  0  0  0  0  0  0  0  0999 V2000
   -5.1768   -1.7889    0.8596 C   0  0  0  0  0  0  0  0  0  0  0  0
   -4.2358   -0.6883    1.0001 N   0  0  0  0  0  0  0  0  0  0  0  0
   -3.2302   -0.6230   -0.0812 C   0  0  2  0  0  0  0  0  0  0  0  0
   -2.3108   -1.8504   -0.1077 C   0  0  0  0  0  0  0  0  0  0  0  0
   -1.1038   -1.6528   -1.0330 C   0  0  1  0  0  0  0  0  0  0  0  0
   -1.1537   -0.4696   -1.8249 O   0  0  0  0  0  0  0  0  0  0  0  0
   -1.4304    0.7844   -1.1510 C   0  0  1  0  0  0  0  0  0  0  0  0
   -2.2037    1.5188   -2.2713 C   0  0  0  0  0  0  0  0  0  0  0  0
   -2.3534    0.6353    0.1057 C   0  0  2  0  0  0  0  0  0  0  0  0
   -1.6052    0.4219    1.3252 O   0  0  0  0  0  0  0  0  0  0  0  0
   -1.6795    1.5201    2.2251 C   0  0  0  0  0  0  0  0  0  0  0  0
   -0.1445    1.4268   -0.8251 N   0  0  0  0  0  0  0  0  0  0  0  0
    0.1618    2.7863   -0.7556 C   0  0  0  0  0  0  0  0  0  0  0  0
   -0.6063    3.9499   -0.9553 C   0  0  0  0  0  0  0  0  0  0  0  0
    0.0048    5.2028   -0.8350 C   0  0  0  0  0  0  0  0  0  0  0  0
    1.3479    5.3142   -0.5102 C   0  0  0  0  0  0  0  0  0  0  0  0
    2.1091    4.1684   -0.2789 C   0  0  0  0  0  0  0  0  0  0  0  0
    1.5187    2.8896   -0.3904 C   0  0  0  0  0  0  0  0  0  0  0  0
    2.0058    1.5757   -0.1519 C   0  0  0  0  0  0  0  0  0  0  0  0
    3.2027    0.9892    0.2914 C   0  0  0  0  0  0  0  0  0  0  0  0
    3.3238   -0.4206    0.4950 C   0  0  0  0  0  0  0  0  0  0  0  0
    2.3008   -1.3554    0.2733 C   0  0  0  0  0  0  0  0  0  0  0  0
    2.0796   -2.7626    0.3855 C   0  0  0  0  0  0  0  0  0  0  0  0
    2.8677   -3.8561    0.8057 C   0  0  0  0  0  0  0  0  0  0  0  0
    2.3406   -5.1517    0.7923 C   0  0  0  0  0  0  0  0  0  0  0  0
    1.0392   -5.3792    0.3646 C   0  0  0  0  0  0  0  0  0  0  0  0
    0.2312   -4.3221   -0.0596 C   0  0  0  0  0  0  0  0  0  0  0  0
    0.7657   -3.0206   -0.0402 C   0  0  0  0  0  0  0  0  0  0  0  0
    0.2053   -1.8054   -0.4066 N   0  0  0  0  0  0  0  0  0  0  0  0
    1.1143   -0.8156   -0.1950 C   0  0  0  0  0  0  0  0  0  0  0  0
    0.9581    0.7198   -0.4140 C   0  0  0  0  0  0  0  0  0  0  0  0
    4.6905   -0.6697    0.9779 C   0  0  0  0  0  0  0  0  0  0  0  0
    5.2007   -1.7326    1.2683 O   0  0  0  0  0  0  0  0  0  0  0  0
    5.3276    0.5497    1.0510 N   0  0  0  0  0  0  0  0  0  0  0  0
    4.4986    1.6522    0.6533 C   0  0  0  0  0  0  0  0  0  0  0  0
   -4.6935   -2.7619    0.9873 H   0  0  0  0  0  0  0  0  0  0  0  0
   -5.9491   -1.7026    1.6303 H   0  0  0  0  0  0  0  0  0  0  0  0
   -5.6797   -1.7608   -0.1123 H   0  0  0  0  0  0  0  0  0  0  0  0
   -3.7451   -0.7649    1.8952 H   0  0  0  0  0  0  0  0  0  0  0  0
   -3.7681   -0.5428   -1.0339 H   0  0  0  0  0  0  0  0  0  0  0  0
   -2.8808   -2.7171   -0.4673 H   0  0  0  0  0  0  0  0  0  0  0  0
   -1.9812   -2.1222    0.9039 H   0  0  0  0  0  0  0  0  0  0  0  0
   -1.1325   -2.4626   -1.7740 H   0  0  0  0  0  0  0  0  0  0  0  0
   -1.5291    1.8466   -3.0712 H   0  0  0  0  0  0  0  0  0  0  0  0
   -2.9351    0.8529   -2.7466 H   0  0  0  0  0  0  0  0  0  0  0  0
   -2.7657    2.3814   -1.9089 H   0  0  0  0  0  0  0  0  0  0  0  0
   -2.9831    1.5287    0.2161 H   0  0  0  0  0  0  0  0  0  0  0  0
   -2.7082    1.6541    2.5727 H   0  0  0  0  0  0  0  0  0  0  0  0
   -1.3210    2.4395    1.7565 H   0  0  0  0  0  0  0  0  0  0  0  0
   -1.0469    1.2984    3.0886 H   0  0  0  0  0  0  0  0  0  0  0  0
   -1.6613    3.9200   -1.1911 H   0  0  0  0  0  0  0  0  0  0  0  0
   -0.5846    6.1028   -0.9973 H   0  0  0  0  0  0  0  0  0  0  0  0
    1.8070    6.2954   -0.4210 H   0  0  0  0  0  0  0  0  0  0  0  0
    3.1538    4.2688   -0.0009 H   0  0  0  0  0  0  0  0  0  0  0  0
    3.8889   -3.7037    1.1431 H   0  0  0  0  0  0  0  0  0  0  0  0
    2.9605   -5.9828    1.1192 H   0  0  0  0  0  0  0  0  0  0  0  0
    0.6456   -6.3928    0.3588 H   0  0  0  0  0  0  0  0  0  0  0  0
   -0.7827   -4.5180   -0.3923 H   0  0  0  0  0  0  0  0  0  0  0  0
    6.2866    0.6143    1.3632 H   0  0  0  0  0  0  0  0  0  0  0  0
    4.9568    2.1525   -0.2036 H   0  0  0  0  0  0  0  0  0  0  0  0
    4.3877    2.3365    1.4983 H   0  0  0  0  0  0  0  0  0  0  0  0
  1  2  1  0
  2  3  1  0
  3  4  1  0
  4  5  1  0
  5  6  1  0
  6  7  1  0
  7  8  1  6
  7  9  1  0
  9 10  1  0
 10 11  1  0
  7 12  1  0
 12 13  1  0
 13 14  2  0
 14 15  1  0
 15 16  2  0
 16 17  1  0
 17 18  2  0
 18 19  1  0
 19 20  2  0
 20 21  1  0
 21 22  2  0
 22 23  1  0
 23 24  2  0
 24 25  1  0
 25 26  2  0
 26 27  1  0
 27 28  2  0
 28 29  1  0
 29 30  1  0
 30 31  2  0
 21 32  1  0
 32 33  2  0
 32 34  1  0
 34 35  1  0
  9  3  1  0
 31 12  1  0
 29  5  1  0
 18 13  1  0
 31 19  1  0
 35 20  1  0
 30 22  1  0
 28 23  1  0
  1 36  1  0
  1 37  1  0
  1 38  1  0
  2 39  1  0
  3 40  1  6
  4 41  1  0
  4 42  1  0
  5 43  1  6
  8 44  1  0
  8 45  1  0
  8 46  1  0
  9 47  1  1
 11 48  1  0
 11 49  1  0
 11 50  1  0
 14 51  1  0
 15 52  1  0
 16 53  1  0
 17 54  1  0
 24 55  1  0
 25 56  1  0
 26 57  1  0
 27 58  1  0
 34 59  1  0
 35 60  1  0
 35 61  1  0
M  END
$$$$
