
     RDKit          3D

 56 59  0  0  0  0  0  0  0  0999 V2000
    4.9163   -2.1890   -0.0484 C   0  0  0  0  0  0  0  0  0  0  0  0
    5.5259   -0.8867    0.4011 C   0  0  0  0  0  0  0  0  0  0  0  0
    6.8922   -0.8849    0.7414 C   0  0  0  0  0  0  0  0  0  0  0  0
    7.5280    0.2896    1.1322 C   0  0  0  0  0  0  0  0  0  0  0  0
    6.7989    1.4684    1.1902 C   0  0  0  0  0  0  0  0  0  0  0  0
    7.5760    2.9279    1.6710 Cl  0  0  0  0  0  0  0  0  0  0  0  0
    5.4391    1.4803    0.8734 C   0  0  0  0  0  0  0  0  0  0  0  0
    4.7688    0.3066    0.4874 C   0  0  0  0  0  0  0  0  0  0  0  0
    3.3963    0.3060    0.2001 N   0  0  0  0  0  0  0  0  0  0  0  0
    2.5590   -0.4099    1.1984 C   0  0  0  0  0  0  0  0  0  0  0  0
    1.2155    0.2976    1.4691 C   0  0  0  0  0  0  0  0  0  0  0  0
    0.5166    0.6662    0.2328 N   0  0  0  0  0  0  0  0  0  0  0  0
   -0.8635    0.5182    0.1591 C   0  0  0  0  0  0  0  0  0  0  0  0
   -1.5211    0.1333    1.1269 O   0  0  0  0  0  0  0  0  0  0  0  0
   -1.5171    0.8320   -1.1995 C   0  0  0  0  0  0  0  0  0  0  0  0
   -2.9688    0.5964   -1.1863 N   0  0  0  0  0  0  0  0  0  0  0  0
   -3.7685    1.7090   -0.9193 C   0  0  0  0  0  0  0  0  0  0  0  0
   -3.3126    2.8426   -0.7505 O   0  0  0  0  0  0  0  0  0  0  0  0
   -5.2657    1.4735   -0.9002 C   0  0  0  0  0  0  0  0  0  0  0  0
   -5.5838    0.8339    0.3568 N   0  0  0  0  0  0  0  0  0  0  0  0
   -6.0883    1.6717    1.4308 C   0  0  0  0  0  0  0  0  0  0  0  0
   -5.2539   -0.4858    0.6025 C   0  0  0  0  0  0  0  0  0  0  0  0
   -5.5715   -1.0671    1.6383 O   0  0  0  0  0  0  0  0  0  0  0  0
   -4.5270   -1.2525   -0.4497 C   0  0  0  0  0  0  0  0  0  0  0  0
   -4.9150   -2.6049   -0.5574 C   0  0  0  0  0  0  0  0  0  0  0  0
   -4.2740   -3.4720   -1.4357 C   0  0  0  0  0  0  0  0  0  0  0  0
   -3.2250   -3.0005   -2.2103 C   0  0  0  0  0  0  0  0  0  0  0  0
   -2.8198   -1.6655   -2.1036 C   0  0  0  0  0  0  0  0  0  0  0  0
   -3.4547   -0.7582   -1.2283 C   0  0  0  0  0  0  0  0  0  0  0  0
    1.3545    1.2120   -0.8438 C   0  0  0  0  0  0  0  0  0  0  0  0
    2.7946    1.5145   -0.3880 C   0  0  0  0  0  0  0  0  0  0  0  0
    4.4350   -2.6912    0.7966 H   0  0  0  0  0  0  0  0  0  0  0  0
    4.1855   -2.0297   -0.8471 H   0  0  0  0  0  0  0  0  0  0  0  0
    5.6799   -2.8602   -0.4563 H   0  0  0  0  0  0  0  0  0  0  0  0
    7.4707   -1.8051    0.6896 H   0  0  0  0  0  0  0  0  0  0  0  0
    8.5839    0.2761    1.3850 H   0  0  0  0  0  0  0  0  0  0  0  0
    4.9025    2.4191    0.9613 H   0  0  0  0  0  0  0  0  0  0  0  0
    2.3439   -1.4090    0.8019 H   0  0  0  0  0  0  0  0  0  0  0  0
    3.0848   -0.5349    2.1536 H   0  0  0  0  0  0  0  0  0  0  0  0
    1.3856    1.2281    2.0242 H   0  0  0  0  0  0  0  0  0  0  0  0
    0.5877   -0.3435    2.0970 H   0  0  0  0  0  0  0  0  0  0  0  0
   -1.0322    0.2455   -1.9815 H   0  0  0  0  0  0  0  0  0  0  0  0
   -1.3226    1.8842   -1.4317 H   0  0  0  0  0  0  0  0  0  0  0  0
   -5.5716    0.8490   -1.7459 H   0  0  0  0  0  0  0  0  0  0  0  0
   -5.7940    2.4290   -0.9855 H   0  0  0  0  0  0  0  0  0  0  0  0
   -6.9987    2.1737    1.0872 H   0  0  0  0  0  0  0  0  0  0  0  0
   -6.3202    1.0925    2.3282 H   0  0  0  0  0  0  0  0  0  0  0  0
   -5.3295    2.4199    1.6791 H   0  0  0  0  0  0  0  0  0  0  0  0
   -5.7223   -2.9884    0.0673 H   0  0  0  0  0  0  0  0  0  0  0  0
   -4.5874   -4.5107   -1.5038 H   0  0  0  0  0  0  0  0  0  0  0  0
   -2.7182   -3.6689   -2.9019 H   0  0  0  0  0  0  0  0  0  0  0  0
   -2.0184   -1.3499   -2.7645 H   0  0  0  0  0  0  0  0  0  0  0  0
    0.8908    2.1244   -1.2305 H   0  0  0  0  0  0  0  0  0  0  0  0
    1.3652    0.4687   -1.6497 H   0  0  0  0  0  0  0  0  0  0  0  0
    2.7705    2.3305    0.3444 H   0  0  0  0  0  0  0  0  0  0  0  0
    3.3778    1.8481   -1.2543 H   0  0  0  0  0  0  0  0  0  0  0  0
  1  2  1  0
  2  3  2  0
  3  4  1  0
  4  5  2  0
  5  6  1  0
  5  7  1  0
  7  8  2  0
  8  9  1  0
  9 10  1  0
 10 11  1  0
 11 12  1  0
 12 13  1  0
 13 14  2  0
 13 15  1  0
 15 16  1  0
 16 17  1  0
 17 18  2  0
 17 19  1  0
 19 20  1  0
 20 21  1  0
 20 22  1  0
 22 23  2  0
 22 24  1  0
 24 25  2  0
 25 26  1  0
 26 27  2  0
 27 28  1  0
 28 29  2  0
 12 30  1  0
 30 31  1  0
  8  2  1  0
 31  9  1  0
 29 16  1  0
 29 24  1  0
  1 32  1  0
  1 33  1  0
  1 34  1  0
  3 35  1  0
  4 36  1  0
  7 37  1  0
 10 38  1  0
 10 39  1  0
 11 40  1  0
 11 41  1  0
 15 42  1  0
 15 43  1  0
 19 44  1  0
 19 45  1  0
 21 46  1  0
 21 47  1  0
 21 48  1  0
 25 49  1  0
 26 50  1  0
 27 51  1  0
 28 52  1  0
 30 53  1  0
 30 54  1  0
 31 55  1  0
 31 56  1  0
M  END
$$$$
