
     RDKit          3D

 37 41  0  0  0  0  0  0  0  0999 V2000
    2.8313    0.2609    3.0132 O   0  0  0  0  0  0  0  0  0  0  0  0
    2.1332    0.1549    2.0254 C   0  0  0  0  0  0  0  0  0  0  0  0
    0.7696    0.1917    1.9856 O   0  0  0  0  0  0  0  0  0  0  0  0
    0.2514    0.0428    0.6346 C   0  0  0  0  0  0  0  0  0  0  0  0
   -0.5313    1.2927    0.2787 C   0  0  0  0  0  0  0  0  0  0  0  0
   -0.0779    2.5863    0.6024 C   0  0  0  0  0  0  0  0  0  0  0  0
   -0.7997    3.7164    0.2099 C   0  0  0  0  0  0  0  0  0  0  0  0
   -1.9748    3.5584   -0.5147 C   0  0  0  0  0  0  0  0  0  0  0  0
   -2.7077    4.6327   -0.9231 O   0  0  0  0  0  0  0  0  0  0  0  0
   -2.4408    2.2928   -0.8451 C   0  0  0  0  0  0  0  0  0  0  0  0
   -1.7248    1.1645   -0.4406 C   0  0  0  0  0  0  0  0  0  0  0  0
   -2.2616   -0.0487   -0.7982 O   0  0  0  0  0  0  0  0  0  0  0  0
   -1.8025   -1.1735   -0.1554 C   0  0  0  0  0  0  0  0  0  0  0  0
   -2.5980   -2.3157   -0.2849 C   0  0  0  0  0  0  0  0  0  0  0  0
   -2.2076   -3.4936    0.3400 C   0  0  0  0  0  0  0  0  0  0  0  0
   -2.9533   -4.6308    0.2462 O   0  0  0  0  0  0  0  0  0  0  0  0
   -1.0372   -3.5472    1.0850 C   0  0  0  0  0  0  0  0  0  0  0  0
   -0.2394   -2.4078    1.2050 C   0  0  0  0  0  0  0  0  0  0  0  0
   -0.6125   -1.2025    0.5813 C   0  0  0  0  0  0  0  0  0  0  0  0
    1.5007   -0.0963   -0.1792 C   0  0  0  0  0  0  0  0  0  0  0  0
    1.6776   -0.2687   -1.5453 C   0  0  0  0  0  0  0  0  0  0  0  0
    2.9823   -0.3710   -2.0390 C   0  0  0  0  0  0  0  0  0  0  0  0
    4.0864   -0.3007   -1.1725 C   0  0  0  0  0  0  0  0  0  0  0  0
    3.8978   -0.1270    0.1988 C   0  0  0  0  0  0  0  0  0  0  0  0
    2.5957   -0.0292    0.6583 C   0  0  0  0  0  0  0  0  0  0  0  0
    0.8438    2.7253    1.1643 H   0  0  0  0  0  0  0  0  0  0  0  0
   -0.4285    4.7018    0.4747 H   0  0  0  0  0  0  0  0  0  0  0  0
   -2.2820    5.4435   -0.5988 H   0  0  0  0  0  0  0  0  0  0  0  0
   -3.3636    2.1848   -1.4075 H   0  0  0  0  0  0  0  0  0  0  0  0
   -3.5128   -2.2641   -0.8663 H   0  0  0  0  0  0  0  0  0  0  0  0
   -3.7513   -4.4401   -0.2741 H   0  0  0  0  0  0  0  0  0  0  0  0
   -0.7442   -4.4741    1.5709 H   0  0  0  0  0  0  0  0  0  0  0  0
    0.6759   -2.4727    1.7896 H   0  0  0  0  0  0  0  0  0  0  0  0
    0.8279   -0.3244   -2.2206 H   0  0  0  0  0  0  0  0  0  0  0  0
    3.1456   -0.5076   -3.1065 H   0  0  0  0  0  0  0  0  0  0  0  0
    5.0937   -0.3832   -1.5753 H   0  0  0  0  0  0  0  0  0  0  0  0
    4.7385   -0.0708    0.8832 H   0  0  0  0  0  0  0  0  0  0  0  0
  1  2  2  0
  2  3  1  0
  3  4  1  0
  4  5  1  0
  5  6  2  0
  6  7  1  0
  7  8  2  0
  8  9  1  0
  8 10  1  0
 10 11  2  0
 11 12  1  0
 12 13  1  0
 13 14  2  0
 14 15  1  0
 15 16  1  0
 15 17  2  0
 17 18  1  0
 18 19  2  0
  4 20  1  0
 20 21  2  0
 21 22  1  0
 22 23  2  0
 23 24  1  0
 24 25  2  0
 25  2  1  0
 19  4  1  0
 25 20  1  0
 11  5  1  0
 19 13  1  0
  6 26  1  0
  7 27  1  0
  9 28  1  0
 10 29  1  0
 14 30  1  0
 16 31  1  0
 17 32  1  0
 18 33  1  0
 21 34  1  0
 22 35  1  0
 23 36  1  0
 24 37  1  0
M  END
$$$$
