
     RDKit          3D

 48 49  0  0  0  0  0  0  0  0999 V2000
   -5.3371   -3.9424    0.8791 C   0  0  0  0  0  0  0  0  0  0  0  0
   -4.2548   -3.0369    0.3697 C   0  0  0  0  0  0  0  0  0  0  0  0
   -3.0787   -2.8466    1.1013 C   0  0  0  0  0  0  0  0  0  0  0  0
   -2.0639   -2.0203    0.6092 C   0  0  0  0  0  0  0  0  0  0  0  0
   -2.2062   -1.3748   -0.6230 C   0  0  0  0  0  0  0  0  0  0  0  0
   -1.1705   -0.5251   -1.1353 N   0  0  0  0  0  0  0  0  0  0  0  0
    0.2335   -0.9751   -1.0751 C   0  0  0  0  0  0  0  0  0  0  0  0
    1.0683   -0.2443   -0.0363 C   0  0  0  0  0  0  0  0  0  0  0  0
    1.1138   -0.6043    1.1388 O   0  0  0  0  0  0  0  0  0  0  0  0
    1.7584    0.8439   -0.5274 N   0  0  0  0  0  0  0  0  0  0  0  0
    2.5329    1.7026    0.3335 C   0  0  0  0  0  0  0  0  0  0  0  0
    3.9894    1.3216    0.3039 C   0  0  0  0  0  0  0  0  0  0  0  0
    4.4856    0.3576    1.1944 C   0  0  0  0  0  0  0  0  0  0  0  0
    5.8303   -0.0170    1.1614 C   0  0  0  0  0  0  0  0  0  0  0  0
    6.6927    0.5631    0.2324 C   0  0  0  0  0  0  0  0  0  0  0  0
    6.2033    1.5109   -0.6643 C   0  0  0  0  0  0  0  0  0  0  0  0
    7.3695    2.2892   -1.9338 Br  0  0  0  0  0  0  0  0  0  0  0  0
    4.8604    1.8900   -0.6368 C   0  0  0  0  0  0  0  0  0  0  0  0
   -1.4594    1.0964   -1.4672 S   0  0  0  0  0  6  0  0  0  0  0  0
   -2.8313    1.3161   -1.8621 O   0  0  0  0  0  0  0  0  0  0  0  0
   -0.3737    1.5545   -2.3142 O   0  0  0  0  0  0  0  0  0  0  0  0
   -1.2378    1.8511    0.0384 N   0  0  0  0  0  0  0  0  0  0  0  0
   -2.1726    1.4509    1.1133 C   0  0  0  0  0  0  0  0  0  0  0  0
   -1.1452    3.3263   -0.0669 C   0  0  0  0  0  0  0  0  0  0  0  0
   -3.3699   -1.5864   -1.3645 C   0  0  0  0  0  0  0  0  0  0  0  0
   -4.3868   -2.4105   -0.8736 C   0  0  0  0  0  0  0  0  0  0  0  0
   -6.3241   -3.5337    0.6394 H   0  0  0  0  0  0  0  0  0  0  0  0
   -5.2402   -4.9345    0.4271 H   0  0  0  0  0  0  0  0  0  0  0  0
   -5.2848   -4.0471    1.9680 H   0  0  0  0  0  0  0  0  0  0  0  0
   -2.9420   -3.3376    2.0629 H   0  0  0  0  0  0  0  0  0  0  0  0
   -1.1692   -1.8831    1.2112 H   0  0  0  0  0  0  0  0  0  0  0  0
    0.6894   -0.8566   -2.0660 H   0  0  0  0  0  0  0  0  0  0  0  0
    0.3033   -2.0495   -0.8653 H   0  0  0  0  0  0  0  0  0  0  0  0
    1.4590    1.2239   -1.4236 H   0  0  0  0  0  0  0  0  0  0  0  0
    2.4016    2.7314   -0.0196 H   0  0  0  0  0  0  0  0  0  0  0  0
    2.1472    1.6678    1.3587 H   0  0  0  0  0  0  0  0  0  0  0  0
    3.8170   -0.1118    1.9155 H   0  0  0  0  0  0  0  0  0  0  0  0
    6.2009   -0.7637    1.8596 H   0  0  0  0  0  0  0  0  0  0  0  0
    7.7378    0.2666    0.2121 H   0  0  0  0  0  0  0  0  0  0  0  0
    4.4886    2.6238   -1.3481 H   0  0  0  0  0  0  0  0  0  0  0  0
   -3.1842    1.2800    0.7358 H   0  0  0  0  0  0  0  0  0  0  0  0
   -1.7993    0.5532    1.6080 H   0  0  0  0  0  0  0  0  0  0  0  0
   -2.2390    2.2255    1.8852 H   0  0  0  0  0  0  0  0  0  0  0  0
   -2.1102    3.7610   -0.3450 H   0  0  0  0  0  0  0  0  0  0  0  0
   -0.3859    3.6211   -0.7967 H   0  0  0  0  0  0  0  0  0  0  0  0
   -0.8329    3.7472    0.8946 H   0  0  0  0  0  0  0  0  0  0  0  0
   -3.4995   -1.1173   -2.3372 H   0  0  0  0  0  0  0  0  0  0  0  0
   -5.2835   -2.5571   -1.4716 H   0  0  0  0  0  0  0  0  0  0  0  0
  1  2  1  0
  2  3  2  0
  3  4  1  0
  4  5  2  0
  5  6  1  0
  6  7  1  0
  7  8  1  0
  8  9  2  0
  8 10  1  0
 10 11  1  0
 11 12  1  0
 12 13  2  0
 13 14  1  0
 14 15  2  0
 15 16  1  0
 16 17  1  0
 16 18  2  0
  6 19  1  0
 19 20  2  0
 19 21  2  0
 19 22  1  0
 22 23  1  0
 22 24  1  0
  5 25  1  0
 25 26  2  0
 26  2  1  0
 18 12  1  0
  1 27  1  0
  1 28  1  0
  1 29  1  0
  3 30  1  0
  4 31  1  0
  7 32  1  0
  7 33  1  0
 10 34  1  0
 11 35  1  0
 11 36  1  0
 13 37  1  0
 14 38  1  0
 15 39  1  0
 18 40  1  0
 23 41  1  0
 23 42  1  0
 23 43  1  0
 24 44  1  0
 24 45  1  0
 24 46  1  0
 25 47  1  0
 26 48  1  0
M  END
$$$$
