
     RDKit          3D

 44 47  0  0  0  0  0  0  0  0999 V2000
    6.3663    0.9493   -0.1810 C   0  0  0  0  0  0  0  0  0  0  0  0
    5.3903   -0.0834   -0.2625 O   0  0  0  0  0  0  0  0  0  0  0  0
    4.0705    0.2566   -0.1530 C   0  0  0  0  0  0  0  0  0  0  0  0
    3.6284    1.5612    0.0844 C   0  0  0  0  0  0  0  0  0  0  0  0
    2.2638    1.8598    0.1272 C   0  0  0  0  0  0  0  0  0  0  0  0
    1.3062    0.8607   -0.0785 C   0  0  0  0  0  0  0  0  0  0  0  0
   -0.0616    1.1508   -0.0641 C   0  0  0  0  0  0  0  0  0  0  0  0
   -1.0127    0.1434   -0.2818 C   0  0  0  0  0  0  0  0  0  0  0  0
   -0.5812   -1.1329   -0.4874 N   0  0  0  0  0  4  0  0  0  0  0  0
    0.7404   -1.4273   -0.5094 C   0  0  0  0  0  0  0  0  0  0  0  0
    1.7274   -0.4575   -0.3056 C   0  0  0  0  0  0  0  0  0  0  0  0
    3.1135   -0.7642   -0.3175 C   0  0  0  0  0  0  0  0  0  0  0  0
    3.3946   -2.0928   -0.5536 O   0  0  0  0  0  0  0  0  0  0  0  0
    4.5639   -2.6273    0.0652 C   0  0  0  0  0  0  0  0  0  0  0  0
   -1.5455   -2.2327   -0.7536 C   0  0  0  0  0  0  0  0  0  0  0  0
   -2.7493   -2.1018    0.1618 C   0  0  0  0  0  0  0  0  0  0  0  0
   -3.3506   -0.7372   -0.0309 C   0  0  0  0  0  0  0  0  0  0  0  0
   -4.7428   -0.5661    0.0478 C   0  0  0  0  0  0  0  0  0  0  0  0
   -5.2444    0.6993   -0.1455 C   0  0  0  0  0  0  0  0  0  0  0  0
   -4.4214    1.7648   -0.4012 C   0  0  0  0  0  0  0  0  0  0  0  0
   -3.0480    1.6314   -0.4688 C   0  0  0  0  0  0  0  0  0  0  0  0
   -2.4743    0.3605   -0.2674 C   0  0  0  0  0  0  0  0  0  0  0  0
   -5.1106    2.9240   -0.5695 O   0  0  0  0  0  0  0  0  0  0  0  0
   -6.4691    2.4664   -0.3833 C   0  0  0  0  0  0  0  0  0  0  0  0
   -6.5557    1.0493   -0.1178 O   0  0  0  0  0  0  0  0  0  0  0  0
    0.0000    0.0000    0.0000 Cl  0  0  0  0  0 15  0  0  0  0  0  0
    7.3495    0.4902   -0.3221 H   0  0  0  0  0  0  0  0  0  0  0  0
    6.3577    1.4205    0.8071 H   0  0  0  0  0  0  0  0  0  0  0  0
    6.2267    1.6887   -0.9763 H   0  0  0  0  0  0  0  0  0  0  0  0
    4.3247    2.3824    0.2324 H   0  0  0  0  0  0  0  0  0  0  0  0
    1.9663    2.8922    0.3099 H   0  0  0  0  0  0  0  0  0  0  0  0
   -0.3822    2.1722    0.1331 H   0  0  0  0  0  0  0  0  0  0  0  0
    1.0044   -2.4646   -0.7019 H   0  0  0  0  0  0  0  0  0  0  0  0
    5.4362   -2.4864   -0.5792 H   0  0  0  0  0  0  0  0  0  0  0  0
    4.7286   -2.2186    1.0680 H   0  0  0  0  0  0  0  0  0  0  0  0
    4.4118   -3.7059    0.1736 H   0  0  0  0  0  0  0  0  0  0  0  0
   -1.0497   -3.1937   -0.5821 H   0  0  0  0  0  0  0  0  0  0  0  0
   -1.8125   -2.1538   -1.8146 H   0  0  0  0  0  0  0  0  0  0  0  0
   -2.4556   -2.2161    1.2118 H   0  0  0  0  0  0  0  0  0  0  0  0
   -3.4748   -2.8866   -0.0791 H   0  0  0  0  0  0  0  0  0  0  0  0
   -5.4180   -1.3931    0.2473 H   0  0  0  0  0  0  0  0  0  0  0  0
   -2.4581    2.5177   -0.6817 H   0  0  0  0  0  0  0  0  0  0  0  0
   -6.9107    3.0102    0.4596 H   0  0  0  0  0  0  0  0  0  0  0  0
   -7.0424    2.6902   -1.2901 H   0  0  0  0  0  0  0  0  0  0  0  0
  1  2  1  0
  2  3  1  0
  3  4  2  0
  4  5  1  0
  5  6  2  0
  6  7  1  0
  7  8  2  0
  8  9  1  0
  9 10  2  0
 10 11  1  0
 11 12  2  0
 12 13  1  0
 13 14  1  0
  9 15  1  0
 15 16  1  0
 16 17  1  0
 17 18  2  0
 18 19  1  0
 19 20  2  0
 20 21  1  0
 21 22  2  0
 20 23  1  0
 23 24  1  0
 24 25  1  0
 12  3  1  0
 22 17  1  0
 11  6  1  0
 25 19  1  0
 22  8  1  0
  1 27  1  0
  1 28  1  0
  1 29  1  0
  4 30  1  0
  5 31  1  0
  7 32  1  0
 10 33  1  0
 14 34  1  0
 14 35  1  0
 14 36  1  0
 15 37  1  0
 15 38  1  0
 16 39  1  0
 16 40  1  0
 18 41  1  0
 21 42  1  0
 24 43  1  0
 24 44  1  0
M  CHG  2   9   1  26  -1
M  END
$$$$
