
     RDKit          3D

 45 48  0  0  0  0  0  0  0  0999 V2000
    6.2475   -1.9090   -2.7912 O   0  0  0  0  0  0  0  0  0  0  0  0
    5.5101   -1.4568   -1.9228 C   0  0  0  0  0  0  0  0  0  0  0  0
    5.3263   -2.1689   -0.6345 C   0  0  0  0  0  0  0  0  0  0  0  0
    4.5202   -1.6867    0.3209 C   0  0  0  0  0  0  0  0  0  0  0  0
    3.7968   -0.4334    0.1042 C   0  0  0  0  0  0  0  0  0  0  0  0
    2.9474    0.0945    1.0784 C   0  0  0  0  0  0  0  0  0  0  0  0
    2.2647    1.2898    0.8219 C   0  0  0  0  0  0  0  0  0  0  0  0
    1.2038    1.9806    2.0779 S   0  0  0  0  0  6  0  0  0  0  0  0
    1.6474    1.4543    3.3510 O   0  0  0  0  0  0  0  0  0  0  0  0
    1.1272    3.4059    1.8387 O   0  0  0  0  0  0  0  0  0  0  0  0
   -0.3065    1.3086    1.7306 N   0  0  0  0  0  0  0  0  0  0  0  0
   -0.5071   -0.1336    2.0576 C   0  0  0  0  0  0  0  0  0  0  0  0
   -1.9102   -0.6127    1.6405 C   0  0  0  0  0  0  0  0  0  0  0  0
   -2.1361   -0.4429    0.1807 N   0  0  0  0  0  0  0  0  0  0  0  0
   -3.4837   -0.5870   -0.1763 C   0  0  0  0  0  0  0  0  0  0  0  0
   -4.1064   -1.8369    0.0003 C   0  0  0  0  0  0  0  0  0  0  0  0
   -5.4483   -2.0401   -0.3328 C   0  0  0  0  0  0  0  0  0  0  0  0
   -6.1875   -0.9869   -0.8473 C   0  0  0  0  0  0  0  0  0  0  0  0
   -7.4743   -1.1739   -1.1675 F   0  0  0  0  0  0  0  0  0  0  0  0
   -5.6086    0.2597   -1.0331 C   0  0  0  0  0  0  0  0  0  0  0  0
   -4.2638    0.4563   -0.6993 C   0  0  0  0  0  0  0  0  0  0  0  0
   -1.3196    0.6102   -0.4585 C   0  0  0  0  0  0  0  0  0  0  0  0
   -1.0230    1.7720    0.5045 C   0  0  0  0  0  0  0  0  0  0  0  0
    2.4615    1.9846   -0.3780 C   0  0  0  0  0  0  0  0  0  0  0  0
    3.3109    1.4570   -1.3518 C   0  0  0  0  0  0  0  0  0  0  0  0
    3.9691    0.2510   -1.1096 C   0  0  0  0  0  0  0  0  0  0  0  0
    4.8206   -0.2853   -2.0835 N   0  0  0  0  0  0  0  0  0  0  0  0
    5.8812   -3.0911   -0.5151 H   0  0  0  0  0  0  0  0  0  0  0  0
    4.3961   -2.2122    1.2613 H   0  0  0  0  0  0  0  0  0  0  0  0
    2.8197   -0.4149    2.0311 H   0  0  0  0  0  0  0  0  0  0  0  0
   -0.3950   -0.2745    3.1378 H   0  0  0  0  0  0  0  0  0  0  0  0
    0.2449   -0.7423    1.5457 H   0  0  0  0  0  0  0  0  0  0  0  0
   -2.0123   -1.6694    1.9133 H   0  0  0  0  0  0  0  0  0  0  0  0
   -2.6591   -0.0407    2.2053 H   0  0  0  0  0  0  0  0  0  0  0  0
   -3.5317   -2.6780    0.3808 H   0  0  0  0  0  0  0  0  0  0  0  0
   -5.9122   -3.0114   -0.1986 H   0  0  0  0  0  0  0  0  0  0  0  0
   -6.2049    1.0742   -1.4312 H   0  0  0  0  0  0  0  0  0  0  0  0
   -3.8539    1.4520   -0.8346 H   0  0  0  0  0  0  0  0  0  0  0  0
   -0.3702    0.1475   -0.7577 H   0  0  0  0  0  0  0  0  0  0  0  0
   -1.7639    0.9823   -1.3882 H   0  0  0  0  0  0  0  0  0  0  0  0
   -0.4505    2.5380   -0.0260 H   0  0  0  0  0  0  0  0  0  0  0  0
   -1.9578    2.2443    0.8290 H   0  0  0  0  0  0  0  0  0  0  0  0
    1.9688    2.9384   -0.5563 H   0  0  0  0  0  0  0  0  0  0  0  0
    3.4596    1.9966   -2.2834 H   0  0  0  0  0  0  0  0  0  0  0  0
    4.9631    0.1910   -2.9638 H   0  0  0  0  0  0  0  0  0  0  0  0
  1  2  2  0
  2  3  1  0
  3  4  2  0
  4  5  1  0
  5  6  2  0
  6  7  1  0
  7  8  1  0
  8  9  2  0
  8 10  2  0
  8 11  1  0
 11 12  1  0
 12 13  1  0
 13 14  1  0
 14 15  1  0
 15 16  2  0
 16 17  1  0
 17 18  2  0
 18 19  1  0
 18 20  1  0
 20 21  2  0
 14 22  1  0
 22 23  1  0
  7 24  2  0
 24 25  1  0
 25 26  2  0
 26 27  1  0
 27  2  1  0
 26  5  1  0
 23 11  1  0
 21 15  1  0
  3 28  1  0
  4 29  1  0
  6 30  1  0
 12 31  1  0
 12 32  1  0
 13 33  1  0
 13 34  1  0
 16 35  1  0
 17 36  1  0
 20 37  1  0
 21 38  1  0
 22 39  1  0
 22 40  1  0
 23 41  1  0
 23 42  1  0
 24 43  1  0
 25 44  1  0
 27 45  1  0
M  END
$$$$
