
     RDKit          3D

 30 32  0  0  0  0  0  0  0  0999 V2000
    4.0850   -0.1330   -1.4462 S   0  0  0  0  0  0  0  0  0  0  0  0
    3.2435    0.8620   -0.5030 C   0  0  0  0  0  0  0  0  0  0  0  0
    2.0554    1.3773   -0.8956 O   0  0  0  0  0  0  0  0  0  0  0  0
    0.7877    0.7980   -0.7769 C   0  0  0  0  0  0  0  0  0  0  0  0
    0.6783   -0.5235   -1.5112 C   0  0  0  0  0  0  0  0  0  0  0  0
    0.1084   -1.4287   -0.4410 C   0  0  0  0  0  0  0  0  0  0  0  0
    0.9546   -0.9330    0.7551 C   0  0  0  0  0  0  0  0  0  0  0  0
    0.4403    0.5232    0.6660 C   0  0  0  0  0  0  0  0  0  0  0  0
   -1.0083    0.2470    0.8866 C   0  0  0  0  0  0  0  0  0  0  0  0
   -1.9547    1.2758    0.4356 C   0  0  0  0  0  0  0  0  0  0  0  0
   -3.0595    0.4335   -0.2184 C   0  0  0  0  0  0  0  0  0  0  0  0
   -2.1954   -0.5688   -0.9959 C   0  0  0  0  0  0  0  0  0  0  0  0
   -1.2366   -1.0078    0.0327 C   0  0  0  0  0  0  0  0  0  0  0  0
    3.8944    1.2841    1.0776 S   0  0  0  0  0  0  0  0  0  0  0  0
    6.3576   -0.0339    1.4071 K   0  0  0  0  0  1  0  0  0  0  0  0
    0.0662    1.4857   -1.2724 H   0  0  0  0  0  0  0  0  0  0  0  0
    1.6777   -0.9371   -1.7686 H   0  0  0  0  0  0  0  0  0  0  0  0
    0.0969   -0.4819   -2.4259 H   0  0  0  0  0  0  0  0  0  0  0  0
    0.2476   -2.4871   -0.6260 H   0  0  0  0  0  0  0  0  0  0  0  0
    0.6204   -1.3867    1.6868 H   0  0  0  0  0  0  0  0  0  0  0  0
    2.0190   -0.9990    0.5511 H   0  0  0  0  0  0  0  0  0  0  0  0
    0.9227    1.1720    1.3853 H   0  0  0  0  0  0  0  0  0  0  0  0
   -1.1551   -0.0405    1.9344 H   0  0  0  0  0  0  0  0  0  0  0  0
   -1.5850    2.0555   -0.2222 H   0  0  0  0  0  0  0  0  0  0  0  0
   -2.4275    1.7749    1.3282 H   0  0  0  0  0  0  0  0  0  0  0  0
   -3.5808   -0.1250    0.5781 H   0  0  0  0  0  0  0  0  0  0  0  0
   -3.6966    1.0213   -0.8714 H   0  0  0  0  0  0  0  0  0  0  0  0
   -2.8751   -1.3625   -1.3596 H   0  0  0  0  0  0  0  0  0  0  0  0
   -1.8057   -0.0334   -1.8534 H   0  0  0  0  0  0  0  0  0  0  0  0
   -1.6754   -1.8287    0.6311 H   0  0  0  0  0  0  0  0  0  0  0  0
  1  2  2  0
  2  3  1  0
  3  4  1  0
  4  5  1  0
  5  6  1  0
  6  7  1  0
  7  8  1  0
  8  9  1  0
  9 10  1  0
 10 11  1  0
 11 12  1  0
 12 13  1  0
  2 14  1  0
 14 15  1  0
  8  4  1  0
 13  9  1  0
 13  6  1  0
  4 16  1  0
  5 17  1  0
  5 18  1  0
  6 19  1  0
  7 20  1  0
  7 21  1  0
  8 22  1  0
  9 23  1  0
 10 24  1  0
 10 25  1  0
 11 26  1  0
 11 27  1  0
 12 28  1  0
 12 29  1  0
 13 30  1  0
M  END
$$$$
