
     RDKit          3D

 31 33  0  0  0  0  0  0  0  0999 V2000
    2.2416   -1.7713    2.3103 O   0  0  0  0  0  0  0  0  0  0  0  0
    1.6939   -1.0737    1.4635 C   0  0  0  0  0  0  0  0  0  0  0  0
    0.2383   -1.1012    1.2624 C   0  0  0  0  0  0  0  0  0  0  0  0
   -0.3032   -0.3154    0.3198 C   0  0  0  0  0  0  0  0  0  0  0  0
   -1.7593   -0.2869    0.0746 C   0  0  0  0  0  0  0  0  0  0  0  0
   -2.4050    0.9401   -0.1724 C   0  0  0  0  0  0  0  0  0  0  0  0
   -3.7821    0.9985   -0.4179 C   0  0  0  0  0  0  0  0  0  0  0  0
   -4.5172   -0.1783   -0.4221 C   0  0  0  0  0  0  0  0  0  0  0  0
   -5.8638   -0.1909   -0.6551 O   0  0  0  0  0  0  0  0  0  0  0  0
   -3.8886   -1.3974   -0.1884 C   0  0  0  0  0  0  0  0  0  0  0  0
   -4.6174   -2.5526   -0.2003 O   0  0  0  0  0  0  0  0  0  0  0  0
   -2.5224   -1.4641    0.0554 C   0  0  0  0  0  0  0  0  0  0  0  0
    0.4235    0.5499   -0.4847 O   0  0  0  0  0  0  0  0  0  0  0  0
    1.7865    0.5988   -0.3312 C   0  0  0  0  0  0  0  0  0  0  0  0
    2.4891    1.4694   -1.1637 C   0  0  0  0  0  0  0  0  0  0  0  0
    3.8737    1.5601   -1.0488 C   0  0  0  0  0  0  0  0  0  0  0  0
    4.5221    2.4237   -1.8814 O   0  0  0  0  0  0  0  0  0  0  0  0
    4.5694    0.7956   -0.1157 C   0  0  0  0  0  0  0  0  0  0  0  0
    3.8621   -0.0722    0.7132 C   0  0  0  0  0  0  0  0  0  0  0  0
    4.5944   -0.7991    1.6130 O   0  0  0  0  0  0  0  0  0  0  0  0
    2.4707   -0.1718    0.6061 C   0  0  0  0  0  0  0  0  0  0  0  0
   -0.3308   -1.7601    1.9054 H   0  0  0  0  0  0  0  0  0  0  0  0
   -1.8346    1.8676   -0.1693 H   0  0  0  0  0  0  0  0  0  0  0  0
   -4.2495    1.9607   -0.6008 H   0  0  0  0  0  0  0  0  0  0  0  0
   -6.1547    0.7251   -0.8056 H   0  0  0  0  0  0  0  0  0  0  0  0
   -5.5323   -2.2645   -0.3923 H   0  0  0  0  0  0  0  0  0  0  0  0
   -2.0677   -2.4378    0.2148 H   0  0  0  0  0  0  0  0  0  0  0  0
    1.9644    2.0733   -1.8986 H   0  0  0  0  0  0  0  0  0  0  0  0
    5.4762    2.3783   -1.6991 H   0  0  0  0  0  0  0  0  0  0  0  0
    5.6486    0.8603   -0.0192 H   0  0  0  0  0  0  0  0  0  0  0  0
    3.9740   -1.3641    2.1281 H   0  0  0  0  0  0  0  0  0  0  0  0
  1  2  2  0
  2  3  1  0
  3  4  2  0
  4  5  1  0
  5  6  2  0
  6  7  1  0
  7  8  2  0
  8  9  1  0
  8 10  1  0
 10 11  1  0
 10 12  2  0
  4 13  1  0
 13 14  1  0
 14 15  2  0
 15 16  1  0
 16 17  1  0
 16 18  2  0
 18 19  1  0
 19 20  1  0
 19 21  2  0
 21  2  1  0
 12  5  1  0
 21 14  1  0
  3 22  1  0
  6 23  1  0
  7 24  1  0
  9 25  1  0
 11 26  1  0
 12 27  1  0
 15 28  1  0
 17 29  1  0
 18 30  1  0
 20 31  1  0
M  END
$$$$
