
     RDKit          3D

 56 60  0  0  0  0  0  0  0  0999 V2000
   -0.6943    2.1847   -1.2121 N   0  0  0  0  0  0  0  0  0  0  0  0
   -1.8942    1.5237   -0.9884 C   0  0  0  0  0  0  0  0  0  0  0  0
   -2.9865    2.1516   -1.4673 N   0  0  0  0  0  0  0  0  0  0  0  0
   -4.1984    1.5862   -1.3225 C   0  0  0  0  0  0  0  0  0  0  0  0
   -4.4338    0.3672   -0.7099 C   0  0  0  0  0  0  0  0  0  0  0  0
   -5.7644   -0.1843   -0.6054 C   0  0  0  0  0  0  0  0  0  0  0  0
   -6.2800   -1.4530   -0.9519 C   0  0  0  0  0  0  0  0  0  0  0  0
   -7.5897   -1.5586   -0.7091 N   0  0  0  0  0  0  0  0  0  0  0  0
   -7.9156   -0.3555   -0.2028 N   0  0  0  0  0  0  0  0  0  0  0  0
   -9.2813   -0.0937    0.1944 C   0  0  0  0  0  0  0  0  0  0  0  0
   -9.6214   -0.7447    1.5257 C   0  0  0  0  0  0  0  0  0  0  0  0
  -10.9719   -0.4600    1.8863 O   0  0  0  0  0  0  0  0  0  0  0  0
   -6.8605    0.5088   -0.1345 C   0  0  0  0  0  0  0  0  0  0  0  0
   -3.2975   -0.2939   -0.2029 C   0  0  0  0  0  0  0  0  0  0  0  0
   -3.2296   -1.8075    0.6366 S   0  0  0  0  0  0  0  0  0  0  0  0
   -1.5468   -1.7344    0.8223 C   0  0  0  0  0  0  0  0  0  0  0  0
   -1.0091   -0.5883    0.2808 C   0  0  0  0  0  0  0  0  0  0  0  0
    0.4236   -0.3553    0.3893 C   0  0  0  0  0  0  0  0  0  0  0  0
    1.3230   -1.1177   -0.3603 C   0  0  0  0  0  0  0  0  0  0  0  0
    2.6999   -0.8837   -0.2628 C   0  0  0  0  0  0  0  0  0  0  0  0
    3.1926    0.1153    0.5794 C   0  0  0  0  0  0  0  0  0  0  0  0
    4.5636    0.4055    0.7382 N   0  0  0  0  0  0  0  0  0  0  0  0
    5.6210   -0.0791   -0.0196 C   0  0  0  0  0  0  0  0  0  0  0  0
    5.5069   -0.7665   -1.0251 O   0  0  0  0  0  0  0  0  0  0  0  0
    6.8278    0.3308    0.5309 N   0  0  0  0  0  0  0  0  0  0  0  0
    8.1209    0.1384   -0.0006 C   0  0  0  0  0  0  0  0  0  0  0  0
    9.2072    0.4795    0.8205 C   0  0  0  0  0  0  0  0  0  0  0  0
   10.5226    0.3298    0.3696 C   0  0  0  0  0  0  0  0  0  0  0  0
   10.7622   -0.1581   -0.9110 C   0  0  0  0  0  0  0  0  0  0  0  0
    9.6861   -0.4880   -1.7256 C   0  0  0  0  0  0  0  0  0  0  0  0
    9.9199   -0.9501   -2.9614 F   0  0  0  0  0  0  0  0  0  0  0  0
    8.3724   -0.3432   -1.2855 C   0  0  0  0  0  0  0  0  0  0  0  0
    2.2866    0.8694    1.3363 C   0  0  0  0  0  0  0  0  0  0  0  0
    0.9106    0.6384    1.2418 C   0  0  0  0  0  0  0  0  0  0  0  0
   -2.0137    0.2708   -0.3267 C   0  0  0  0  0  0  0  0  0  0  0  0
    0.1065    1.5795   -1.3389 H   0  0  0  0  0  0  0  0  0  0  0  0
   -0.8235    2.8947   -1.9245 H   0  0  0  0  0  0  0  0  0  0  0  0
   -5.0144    2.1659   -1.7475 H   0  0  0  0  0  0  0  0  0  0  0  0
   -5.7585   -2.3014   -1.3770 H   0  0  0  0  0  0  0  0  0  0  0  0
   -9.4258    0.9914    0.2481 H   0  0  0  0  0  0  0  0  0  0  0  0
   -9.9411   -0.4587   -0.6012 H   0  0  0  0  0  0  0  0  0  0  0  0
   -8.9754   -0.3565    2.3203 H   0  0  0  0  0  0  0  0  0  0  0  0
   -9.4905   -1.8319    1.4953 H   0  0  0  0  0  0  0  0  0  0  0  0
  -11.5431   -1.0375    1.3490 H   0  0  0  0  0  0  0  0  0  0  0  0
   -6.9748    1.5140    0.2484 H   0  0  0  0  0  0  0  0  0  0  0  0
   -1.0269   -2.5330    1.3355 H   0  0  0  0  0  0  0  0  0  0  0  0
    0.9664   -1.8978   -1.0296 H   0  0  0  0  0  0  0  0  0  0  0  0
    3.3623   -1.5073   -0.8561 H   0  0  0  0  0  0  0  0  0  0  0  0
    4.7835    1.1643    1.3647 H   0  0  0  0  0  0  0  0  0  0  0  0
    6.7854    0.6656    1.4810 H   0  0  0  0  0  0  0  0  0  0  0  0
    9.0465    0.8633    1.8250 H   0  0  0  0  0  0  0  0  0  0  0  0
   11.3554    0.5937    1.0164 H   0  0  0  0  0  0  0  0  0  0  0  0
   11.7746   -0.2818   -1.2818 H   0  0  0  0  0  0  0  0  0  0  0  0
    7.5789   -0.6088   -1.9745 H   0  0  0  0  0  0  0  0  0  0  0  0
    2.6328    1.6527    2.0056 H   0  0  0  0  0  0  0  0  0  0  0  0
    0.2240    1.2450    1.8290 H   0  0  0  0  0  0  0  0  0  0  0  0
  1  2  1  0
  2  3  2  0
  3  4  1  0
  4  5  2  0
  5  6  1  0
  6  7  1  0
  7  8  2  0
  8  9  1  0
  9 10  1  0
 10 11  1  0
 11 12  1  0
  9 13  1  0
  5 14  1  0
 14 15  1  0
 15 16  1  0
 16 17  2  0
 17 18  1  0
 18 19  2  0
 19 20  1  0
 20 21  2  0
 21 22  1  0
 22 23  1  0
 23 24  2  0
 23 25  1  0
 25 26  1  0
 26 27  2  0
 27 28  1  0
 28 29  2  0
 29 30  1  0
 30 31  1  0
 30 32  2  0
 21 33  1  0
 33 34  2  0
 17 35  1  0
 35  2  1  0
 13  6  2  0
 35 14  2  0
 34 18  1  0
 32 26  1  0
  1 36  1  0
  1 37  1  0
  4 38  1  0
  7 39  1  0
 10 40  1  0
 10 41  1  0
 11 42  1  0
 11 43  1  0
 12 44  1  0
 13 45  1  0
 16 46  1  0
 19 47  1  0
 20 48  1  0
 22 49  1  0
 25 50  1  0
 27 51  1  0
 28 52  1  0
 29 53  1  0
 32 54  1  0
 33 55  1  0
 34 56  1  0
M  END
$$$$
