
     RDKit          3D

 44 46  0  0  0  0  0  0  0  0999 V2000
    4.8818   -0.3185   -0.7813 C   0  0  0  0  0  0  0  0  0  0  0  0
    3.7078    0.0450   -1.5682 N   0  0  0  0  0  0  0  0  0  0  0  0
    3.5661    1.4961   -1.6604 C   0  0  0  0  0  0  0  0  0  0  0  0
    2.4772   -0.6109   -1.0953 C   0  0  0  0  0  0  0  0  0  0  0  0
    2.0284   -0.3037    0.3464 C   0  0  0  0  0  0  0  0  0  0  0  0
    0.7404   -1.0198    0.6749 C   0  0  0  0  0  0  0  0  0  0  0  0
   -0.4916   -0.4882    0.8488 C   0  0  0  0  0  0  0  0  0  0  0  0
   -1.6282   -1.4278    1.0449 C   0  0  0  0  0  0  0  0  0  0  0  0
   -1.5515   -2.3578    2.1022 C   0  0  0  0  0  0  0  0  0  0  0  0
   -2.5849   -3.2599    2.3532 C   0  0  0  0  0  0  0  0  0  0  0  0
   -3.7219   -3.2404    1.5582 C   0  0  0  0  0  0  0  0  0  0  0  0
   -3.8240   -2.3158    0.5193 C   0  0  0  0  0  0  0  0  0  0  0  0
   -2.7877   -1.3977    0.2405 C   0  0  0  0  0  0  0  0  0  0  0  0
   -3.0571   -0.4205   -0.8929 C   0  0  0  0  0  0  0  0  0  0  0  0
   -1.9086    0.4166   -1.4678 C   0  0  0  0  0  0  0  0  0  0  0  0
   -1.3812    1.4172   -0.4695 C   0  0  0  0  0  0  0  0  0  0  0  0
   -1.5803    2.7924   -0.6508 C   0  0  0  0  0  0  0  0  0  0  0  0
   -1.1220    3.7026    0.3029 C   0  0  0  0  0  0  0  0  0  0  0  0
   -0.4690    3.2482    1.4472 C   0  0  0  0  0  0  0  0  0  0  0  0
   -0.2640    1.8816    1.6357 C   0  0  0  0  0  0  0  0  0  0  0  0
   -0.7041    0.9634    0.6739 C   0  0  0  0  0  0  0  0  0  0  0  0
    4.8445    0.0759    0.2399 H   0  0  0  0  0  0  0  0  0  0  0  0
    5.7913    0.0651   -1.2572 H   0  0  0  0  0  0  0  0  0  0  0  0
    4.9923   -1.4073   -0.7291 H   0  0  0  0  0  0  0  0  0  0  0  0
    3.4682    1.9754   -0.6806 H   0  0  0  0  0  0  0  0  0  0  0  0
    4.4388    1.9303   -2.1612 H   0  0  0  0  0  0  0  0  0  0  0  0
    2.6936    1.7642   -2.2664 H   0  0  0  0  0  0  0  0  0  0  0  0
    2.6079   -1.6963   -1.2043 H   0  0  0  0  0  0  0  0  0  0  0  0
    1.6642   -0.3550   -1.7884 H   0  0  0  0  0  0  0  0  0  0  0  0
    1.9372    0.7753    0.4868 H   0  0  0  0  0  0  0  0  0  0  0  0
    2.7864   -0.6448    1.0611 H   0  0  0  0  0  0  0  0  0  0  0  0
    0.8557   -2.1026    0.7325 H   0  0  0  0  0  0  0  0  0  0  0  0
   -0.6782   -2.3757    2.7514 H   0  0  0  0  0  0  0  0  0  0  0  0
   -2.5022   -3.9681    3.1729 H   0  0  0  0  0  0  0  0  0  0  0  0
   -4.5350   -3.9353    1.7502 H   0  0  0  0  0  0  0  0  0  0  0  0
   -4.7326   -2.3065   -0.0809 H   0  0  0  0  0  0  0  0  0  0  0  0
   -3.4683   -1.0006   -1.7306 H   0  0  0  0  0  0  0  0  0  0  0  0
   -3.8533    0.2575   -0.5555 H   0  0  0  0  0  0  0  0  0  0  0  0
   -1.0930   -0.2235   -1.8267 H   0  0  0  0  0  0  0  0  0  0  0  0
   -2.2781    0.9495   -2.3535 H   0  0  0  0  0  0  0  0  0  0  0  0
   -2.1011    3.1629   -1.5305 H   0  0  0  0  0  0  0  0  0  0  0  0
   -1.2833    4.7677    0.1572 H   0  0  0  0  0  0  0  0  0  0  0  0
   -0.1221    3.9572    2.1940 H   0  0  0  0  0  0  0  0  0  0  0  0
    0.2417    1.5327    2.5325 H   0  0  0  0  0  0  0  0  0  0  0  0
  1  2  1  0
  2  3  1  0
  2  4  1  0
  4  5  1  0
  5  6  1  0
  6  7  2  3
  7  8  1  0
  8  9  2  0
  9 10  1  0
 10 11  2  0
 11 12  1  0
 12 13  2  0
 13 14  1  0
 14 15  1  0
 15 16  1  0
 16 17  2  0
 17 18  1  0
 18 19  2  0
 19 20  1  0
 20 21  2  0
 21  7  1  0
 13  8  1  0
 21 16  1  0
  1 22  1  0
  1 23  1  0
  1 24  1  0
  3 25  1  0
  3 26  1  0
  3 27  1  0
  4 28  1  0
  4 29  1  0
  5 30  1  0
  5 31  1  0
  6 32  1  0
  9 33  1  0
 10 34  1  0
 11 35  1  0
 12 36  1  0
 14 37  1  0
 14 38  1  0
 15 39  1  0
 15 40  1  0
 17 41  1  0
 18 42  1  0
 19 43  1  0
 20 44  1  0
M  END
$$$$
