
     RDKit          3D

 55 56  0  0  0  0  0  0  0  0999 V2000
    6.2077   -2.3948   -1.3889 C   0  0  0  0  0  0  0  0  0  0  0  0
    5.9366   -0.8974   -1.3853 C   0  0  0  0  0  0  0  0  0  0  0  0
    5.2260   -0.4914   -0.1636 N   0  0  0  0  0  0  0  0  0  0  0  0
    6.0857   -0.0800    0.9571 C   0  0  0  0  0  0  0  0  0  0  0  0
    6.2905    1.4288    0.9619 C   0  0  0  0  0  0  0  0  0  0  0  0
    3.8403   -0.5264   -0.0628 C   0  0  0  0  0  0  0  0  0  0  0  0
    3.0242   -1.0365   -1.0879 C   0  0  0  0  0  0  0  0  0  0  0  0
    1.6239   -1.0670   -0.9984 C   0  0  0  0  0  0  0  0  0  0  0  0
    0.9839   -0.5805    0.1367 C   0  0  0  0  0  0  0  0  0  0  0  0
   -0.4768   -0.5802    0.2332 C   0  0  0  0  0  0  0  0  0  0  0  0
   -1.1871    0.3930   -0.3527 C   0  0  0  0  0  0  0  0  0  0  0  0
   -2.6662    0.5243   -0.3265 C   0  0  0  0  0  0  0  0  0  0  0  0
   -3.3285    1.4619   -0.9473 N   0  0  0  0  0  4  0  0  0  0  0  0
   -2.8792    2.5646   -1.8079 C   0  0  0  0  0  0  0  0  0  0  0  0
   -4.7694    1.3195   -0.6843 C   0  0  0  0  0  0  0  0  0  0  0  0
   -5.8127    2.1094   -1.1371 C   0  0  0  0  0  0  0  0  0  0  0  0
   -7.1060    1.7621   -0.7384 C   0  0  0  0  0  0  0  0  0  0  0  0
   -7.3240    0.6517    0.0935 C   0  0  0  0  0  0  0  0  0  0  0  0
   -6.2551   -0.1297    0.5387 C   0  0  0  0  0  0  0  0  0  0  0  0
   -4.9746    0.2207    0.1373 C   0  0  0  0  0  0  0  0  0  0  0  0
   -3.6435   -0.4202    0.4496 C   0  0  0  0  0  0  0  0  0  0  0  0
   -3.4018   -0.3830    1.9621 C   0  0  0  0  0  0  0  0  0  0  0  0
   -3.6277   -1.8475   -0.1087 C   0  0  0  0  0  0  0  0  0  0  0  0
    1.7565   -0.0742    1.1760 C   0  0  0  0  0  0  0  0  0  0  0  0
    3.1560   -0.0520    1.0704 C   0  0  0  0  0  0  0  0  0  0  0  0
    0.0000    0.0000    0.0000 Cl  0  0  0  0  0 15  0  0  0  0  0  0
    5.2806   -2.9753   -1.3561 H   0  0  0  0  0  0  0  0  0  0  0  0
    6.7527   -2.6765   -2.2946 H   0  0  0  0  0  0  0  0  0  0  0  0
    6.8131   -2.6862   -0.5241 H   0  0  0  0  0  0  0  0  0  0  0  0
    6.8979   -0.3711   -1.4448 H   0  0  0  0  0  0  0  0  0  0  0  0
    5.3976   -0.5938   -2.2896 H   0  0  0  0  0  0  0  0  0  0  0  0
    7.0690   -0.5602    0.8656 H   0  0  0  0  0  0  0  0  0  0  0  0
    5.6946   -0.4281    1.9201 H   0  0  0  0  0  0  0  0  0  0  0  0
    6.9628    1.7161    1.7766 H   0  0  0  0  0  0  0  0  0  0  0  0
    5.3464    1.9652    1.0972 H   0  0  0  0  0  0  0  0  0  0  0  0
    6.7331    1.7694    0.0197 H   0  0  0  0  0  0  0  0  0  0  0  0
    3.4606   -1.4437   -1.9963 H   0  0  0  0  0  0  0  0  0  0  0  0
    1.0567   -1.4839   -1.8268 H   0  0  0  0  0  0  0  0  0  0  0  0
   -0.8873   -1.4027    0.8050 H   0  0  0  0  0  0  0  0  0  0  0  0
   -0.6306    1.1609   -0.8855 H   0  0  0  0  0  0  0  0  0  0  0  0
   -3.4192    2.5158   -2.7573 H   0  0  0  0  0  0  0  0  0  0  0  0
   -1.8106    2.4837   -2.0124 H   0  0  0  0  0  0  0  0  0  0  0  0
   -3.0815    3.5091   -1.2955 H   0  0  0  0  0  0  0  0  0  0  0  0
   -5.6682    2.9723   -1.7785 H   0  0  0  0  0  0  0  0  0  0  0  0
   -7.9583    2.3539   -1.0714 H   0  0  0  0  0  0  0  0  0  0  0  0
   -8.3408    0.3977    0.3944 H   0  0  0  0  0  0  0  0  0  0  0  0
   -6.4394   -0.9869    1.1827 H   0  0  0  0  0  0  0  0  0  0  0  0
   -2.4593   -0.8595    2.2432 H   0  0  0  0  0  0  0  0  0  0  0  0
   -3.3648    0.6479    2.3342 H   0  0  0  0  0  0  0  0  0  0  0  0
   -4.1974   -0.9023    2.5094 H   0  0  0  0  0  0  0  0  0  0  0  0
   -2.6976   -2.3731    0.1206 H   0  0  0  0  0  0  0  0  0  0  0  0
   -3.7379   -1.8497   -1.2003 H   0  0  0  0  0  0  0  0  0  0  0  0
   -4.4442   -2.4507    0.3057 H   0  0  0  0  0  0  0  0  0  0  0  0
    1.2949    0.3150    2.0795 H   0  0  0  0  0  0  0  0  0  0  0  0
    3.6989    0.3617    1.9149 H   0  0  0  0  0  0  0  0  0  0  0  0
  1  2  1  0
  2  3  1  0
  3  4  1  0
  4  5  1  0
  3  6  1  0
  6  7  2  0
  7  8  1  0
  8  9  2  0
  9 10  1  0
 10 11  2  0
 11 12  1  0
 12 13  2  0
 13 14  1  0
 13 15  1  0
 15 16  2  0
 16 17  1  0
 17 18  2  0
 18 19  1  0
 19 20  2  0
 20 21  1  0
 21 22  1  0
 21 23  1  0
  9 24  1  0
 24 25  2  0
 25  6  1  0
 21 12  1  0
 20 15  1  0
  1 27  1  0
  1 28  1  0
  1 29  1  0
  2 30  1  0
  2 31  1  0
  4 32  1  0
  4 33  1  0
  5 34  1  0
  5 35  1  0
  5 36  1  0
  7 37  1  0
  8 38  1  0
 10 39  1  0
 11 40  1  0
 14 41  1  0
 14 42  1  0
 14 43  1  0
 16 44  1  0
 17 45  1  0
 18 46  1  0
 19 47  1  0
 22 48  1  0
 22 49  1  0
 22 50  1  0
 23 51  1  0
 23 52  1  0
 23 53  1  0
 24 54  1  0
 25 55  1  0
M  CHG  2  13   1  26  -1
M  END
$$$$
