
     RDKit          3D

 34 35  0  0  0  0  0  0  0  0999 V2000
    5.0918    2.7070   -0.6756 C   0  0  0  0  0  0  0  0  0  0  0  0
    4.2930    2.3339    0.9086 S   0  0  0  0  0  0  0  0  0  0  0  0
    3.2979    0.9291    0.4427 C   0  0  0  0  0  0  0  0  0  0  0  0
    3.3880   -0.2416    1.2023 C   0  0  0  0  0  0  0  0  0  0  0  0
    2.6141   -1.3599    0.8765 C   0  0  0  0  0  0  0  0  0  0  0  0
    1.7251   -1.3088   -0.2024 C   0  0  0  0  0  0  0  0  0  0  0  0
    0.9576   -2.5385   -0.5050 C   0  0  0  0  0  0  0  0  0  0  0  0
   -0.2248   -2.6908   -1.0319 N   0  0  0  0  0  0  0  0  0  0  0  0
   -0.9375   -1.5719   -1.3317 N   0  0  0  0  0  0  0  0  0  0  0  0
   -1.9410   -1.1556   -0.4090 C   0  0  0  0  0  0  0  0  0  0  0  0
   -1.9977   -1.6144    0.9136 C   0  0  0  0  0  0  0  0  0  0  0  0
   -2.9528   -1.1217    1.8072 C   0  0  0  0  0  0  0  0  0  0  0  0
   -3.8542   -0.1415    1.3958 C   0  0  0  0  0  0  0  0  0  0  0  0
   -3.7942    0.3521    0.0889 C   0  0  0  0  0  0  0  0  0  0  0  0
   -4.7153    1.4064   -0.3971 C   0  0  0  0  0  0  0  0  0  0  0  0
   -4.7239    1.8840   -1.5168 O   0  0  0  0  0  0  0  0  0  0  0  0
   -5.5865    1.8151    0.5422 O   0  0  0  0  0  0  0  0  0  0  0  0
   -2.8343   -0.1484   -0.8025 C   0  0  0  0  0  0  0  0  0  0  0  0
    1.6353   -0.1439   -0.9659 C   0  0  0  0  0  0  0  0  0  0  0  0
    2.4107    0.9737   -0.6368 C   0  0  0  0  0  0  0  0  0  0  0  0
    5.8487    3.4802   -0.5183 H   0  0  0  0  0  0  0  0  0  0  0  0
    4.3656    3.0823   -1.4010 H   0  0  0  0  0  0  0  0  0  0  0  0
    5.5842    1.8170   -1.0773 H   0  0  0  0  0  0  0  0  0  0  0  0
    4.0628   -0.2930    2.0542 H   0  0  0  0  0  0  0  0  0  0  0  0
    2.7030   -2.2586    1.4821 H   0  0  0  0  0  0  0  0  0  0  0  0
    1.4631   -3.4765   -0.2150 H   0  0  0  0  0  0  0  0  0  0  0  0
   -1.3725   -1.6216   -2.2570 H   0  0  0  0  0  0  0  0  0  0  0  0
   -1.3019   -2.3738    1.2591 H   0  0  0  0  0  0  0  0  0  0  0  0
   -2.9876   -1.5019    2.8251 H   0  0  0  0  0  0  0  0  0  0  0  0
   -4.5906    0.2350    2.1011 H   0  0  0  0  0  0  0  0  0  0  0  0
   -6.1195    2.4996    0.0862 H   0  0  0  0  0  0  0  0  0  0  0  0
   -2.7806    0.2573   -1.8107 H   0  0  0  0  0  0  0  0  0  0  0  0
    0.9736   -0.0884   -1.8245 H   0  0  0  0  0  0  0  0  0  0  0  0
    2.3005    1.8781   -1.2294 H   0  0  0  0  0  0  0  0  0  0  0  0
  1  2  1  0
  2  3  1  0
  3  4  2  0
  4  5  1  0
  5  6  2  0
  6  7  1  0
  7  8  2  3
  8  9  1  0
  9 10  1  0
 10 11  2  0
 11 12  1  0
 12 13  2  0
 13 14  1  0
 14 15  1  0
 15 16  2  0
 15 17  1  0
 14 18  2  0
  6 19  1  0
 19 20  2  0
 20  3  1  0
 18 10  1  0
  1 21  1  0
  1 22  1  0
  1 23  1  0
  4 24  1  0
  5 25  1  0
  7 26  1  0
  9 27  1  0
 11 28  1  0
 12 29  1  0
 13 30  1  0
 17 31  1  0
 18 32  1  0
 19 33  1  0
 20 34  1  0
M  END
$$$$
