
     RDKit          3D

 26 26  0  0  0  0  0  0  0  0999 V2000
    3.9712    0.6700    0.3276 C   0  0  0  0  0  0  0  0  0  0  0  0
    2.9338    0.9542    1.3110 N   0  0  0  0  0  0  0  0  0  0  0  0
    1.6708    0.2491    1.0160 C   0  0  0  0  0  0  0  0  0  0  0  0
    0.8575    0.7817   -0.1947 C   0  0  1  0  0  0  0  0  0  0  0  0
    1.4871    0.4284   -1.4290 O   0  0  0  0  0  0  0  0  0  0  0  0
   -0.5650    0.2535   -0.2006 C   0  0  0  0  0  0  0  0  0  0  0  0
   -1.6485    1.1316   -0.0162 C   0  0  0  0  0  0  0  0  0  0  0  0
   -2.9619    0.6534   -0.0107 C   0  0  0  0  0  0  0  0  0  0  0  0
   -3.1925   -0.7021   -0.1894 C   0  0  0  0  0  0  0  0  0  0  0  0
   -4.4723   -1.1695   -0.1167 O   0  0  0  0  0  0  0  0  0  0  0  0
   -2.1329   -1.5755   -0.4088 C   0  0  0  0  0  0  0  0  0  0  0  0
   -2.3641   -2.8953   -0.6676 O   0  0  0  0  0  0  0  0  0  0  0  0
   -0.8235   -1.1139   -0.3989 C   0  0  0  0  0  0  0  0  0  0  0  0
    3.7547    1.1268   -0.6418 H   0  0  0  0  0  0  0  0  0  0  0  0
    4.1217   -0.4066    0.1986 H   0  0  0  0  0  0  0  0  0  0  0  0
    4.9190    1.0906    0.6784 H   0  0  0  0  0  0  0  0  0  0  0  0
    2.7665    1.9590    1.3317 H   0  0  0  0  0  0  0  0  0  0  0  0
    1.0534    0.3444    1.9177 H   0  0  0  0  0  0  0  0  0  0  0  0
    1.8786   -0.8217    0.8975 H   0  0  0  0  0  0  0  0  0  0  0  0
    0.8351    1.8776   -0.1559 H   0  0  0  0  0  0  0  0  0  0  0  0
    0.7943    0.3985   -2.1108 H   0  0  0  0  0  0  0  0  0  0  0  0
   -1.4776    2.1958    0.1350 H   0  0  0  0  0  0  0  0  0  0  0  0
   -3.7937    1.3328    0.1512 H   0  0  0  0  0  0  0  0  0  0  0  0
   -4.4193   -2.0212    0.3551 H   0  0  0  0  0  0  0  0  0  0  0  0
   -3.1852   -2.9284   -1.1921 H   0  0  0  0  0  0  0  0  0  0  0  0
   -0.0071   -1.8134   -0.5646 H   0  0  0  0  0  0  0  0  0  0  0  0
  1  2  1  0
  2  3  1  0
  3  4  1  0
  4  5  1  0
  4  6  1  0
  6  7  2  0
  7  8  1  0
  8  9  2  0
  9 10  1  0
  9 11  1  0
 11 12  1  0
 11 13  2  0
 13  6  1  0
  1 14  1  0
  1 15  1  0
  1 16  1  0
  2 17  1  0
  3 18  1  0
  3 19  1  0
  4 20  1  1
  5 21  1  0
  7 22  1  0
  8 23  1  0
 10 24  1  0
 12 25  1  0
 13 26  1  0
M  END
$$$$
