
     RDKit          3D

 41 44  0  0  0  0  0  0  0  0999 V2000
   -1.8671    1.9925    2.5836 O   0  0  0  0  0  0  0  0  0  0  0  0
   -2.4847    0.7249    2.2586 S   0  0  0  0  0  6  0  0  0  0  0  0
   -3.5363    0.1690    3.0852 O   0  0  0  0  0  0  0  0  0  0  0  0
   -1.2969   -0.4691    2.1547 N   0  0  0  0  0  0  0  0  0  0  0  0
   -0.2238   -0.3095    1.2243 C   0  0  0  0  0  0  0  0  0  0  0  0
    0.7478    0.6504    1.5183 C   0  0  0  0  0  0  0  0  0  0  0  0
    1.7967    0.8998    0.6329 C   0  0  0  0  0  0  0  0  0  0  0  0
    2.9603    2.1834    1.0713 S   0  0  0  0  0  0  0  0  0  0  0  0
    4.4348    1.2720    1.2205 C   0  0  0  0  0  0  0  0  0  0  0  0
    4.9365    0.8160    2.4056 N   0  0  0  0  0  0  0  0  0  0  0  0
    6.0334    0.1956    2.0402 C   0  0  0  0  0  0  0  0  0  0  0  0
    6.1737    0.2750    0.6895 N   0  0  0  0  0  0  0  0  0  0  0  0
    5.1497    0.9488    0.1338 N   0  0  0  0  0  0  0  0  0  0  0  0
    1.8478    0.1810   -0.5711 C   0  0  0  0  0  0  0  0  0  0  0  0
    2.8476    0.4111   -1.4914 O   0  0  0  0  0  0  0  0  0  0  0  0
    0.8720   -0.7905   -0.8963 C   0  0  0  0  0  0  0  0  0  0  0  0
    0.9141   -1.5067   -2.1120 C   0  0  0  0  0  0  0  0  0  0  0  0
   -0.0486   -2.4634   -2.4328 C   0  0  0  0  0  0  0  0  0  0  0  0
   -1.0763   -2.7283   -1.5416 C   0  0  0  0  0  0  0  0  0  0  0  0
   -1.1406   -2.0335   -0.3323 C   0  0  0  0  0  0  0  0  0  0  0  0
   -0.1801   -1.0522    0.0168 C   0  0  0  0  0  0  0  0  0  0  0  0
   -3.1158    0.8314    0.5967 C   0  0  0  0  0  0  0  0  0  0  0  0
   -4.1954    0.0233    0.2176 C   0  0  0  0  0  0  0  0  0  0  0  0
   -4.6962    0.1112   -1.0840 C   0  0  0  0  0  0  0  0  0  0  0  0
   -4.1282    1.0120   -1.9879 C   0  0  0  0  0  0  0  0  0  0  0  0
   -4.7486    1.1149   -3.5908 Cl  0  0  0  0  0  0  0  0  0  0  0  0
   -3.0672    1.8340   -1.6017 C   0  0  0  0  0  0  0  0  0  0  0  0
   -2.5601    1.7502   -0.3018 C   0  0  0  0  0  0  0  0  0  0  0  0
   -1.6511   -1.4041    2.3329 H   0  0  0  0  0  0  0  0  0  0  0  0
    0.6819    1.2085    2.4517 H   0  0  0  0  0  0  0  0  0  0  0  0
    6.7388   -0.3108    2.6843 H   0  0  0  0  0  0  0  0  0  0  0  0
    6.9105   -0.0953    0.0982 H   0  0  0  0  0  0  0  0  0  0  0  0
    3.5929    0.8660   -1.0421 H   0  0  0  0  0  0  0  0  0  0  0  0
    1.7117   -1.3123   -2.8290 H   0  0  0  0  0  0  0  0  0  0  0  0
    0.0090   -2.9962   -3.3785 H   0  0  0  0  0  0  0  0  0  0  0  0
   -1.8300   -3.4732   -1.7852 H   0  0  0  0  0  0  0  0  0  0  0  0
   -1.9638   -2.2718    0.3354 H   0  0  0  0  0  0  0  0  0  0  0  0
   -4.6515   -0.6678    0.9233 H   0  0  0  0  0  0  0  0  0  0  0  0
   -5.5317   -0.5168   -1.3855 H   0  0  0  0  0  0  0  0  0  0  0  0
   -2.6312    2.5383   -2.3070 H   0  0  0  0  0  0  0  0  0  0  0  0
   -1.7343    2.3922   -0.0046 H   0  0  0  0  0  0  0  0  0  0  0  0
  1  2  2  0
  2  3  2  0
  2  4  1  0
  4  5  1  0
  5  6  2  0
  6  7  1  0
  7  8  1  0
  8  9  1  0
  9 10  1  0
 10 11  2  0
 11 12  1  0
 12 13  1  0
  7 14  2  0
 14 15  1  0
 14 16  1  0
 16 17  2  0
 17 18  1  0
 18 19  2  0
 19 20  1  0
 20 21  2  0
  2 22  1  0
 22 23  2  0
 23 24  1  0
 24 25  2  0
 25 26  1  0
 25 27  1  0
 27 28  2  0
 21  5  1  0
 28 22  1  0
 13  9  2  0
 21 16  1  0
  4 29  1  0
  6 30  1  0
 11 31  1  0
 12 32  1  0
 15 33  1  0
 17 34  1  0
 18 35  1  0
 19 36  1  0
 20 37  1  0
 23 38  1  0
 24 39  1  0
 27 40  1  0
 28 41  1  0
M  END
$$$$
