
     RDKit          3D

 39 41  0  0  0  0  0  0  0  0999 V2000
   -3.7666    2.8912   -1.1871 C   0  0  0  0  0  0  0  0  0  0  0  0
   -3.8696    1.6408    0.0786 S   0  0  0  0  0  6  0  0  0  0  0  0
   -5.1912    1.0603   -0.0354 O   0  0  0  0  0  0  0  0  0  0  0  0
   -3.4181    2.2238    1.3247 O   0  0  0  0  0  0  0  0  0  0  0  0
   -2.6760    0.5035   -0.4484 N   0  0  0  0  0  0  0  0  0  0  0  0
   -1.3051    1.1193   -0.5609 C   0  0  0  0  0  0  0  0  0  0  0  0
   -0.2448    0.0349   -0.6892 C   0  0  0  0  0  0  0  0  0  0  0  0
    1.1379    0.6746   -0.8721 C   0  0  0  0  0  0  0  0  0  0  0  0
    1.2694    1.7987   -1.3478 O   0  0  0  0  0  0  0  0  0  0  0  0
    2.1614   -0.1832   -0.5105 N   0  0  0  0  0  0  0  0  0  0  0  0
    3.5571    0.0241   -0.5841 C   0  0  0  0  0  0  0  0  0  0  0  0
    4.1334    1.1685   -1.1412 C   0  0  0  0  0  0  0  0  0  0  0  0
    5.5249    1.3139   -1.1870 C   0  0  0  0  0  0  0  0  0  0  0  0
    6.3562    0.3180   -0.6789 C   0  0  0  0  0  0  0  0  0  0  0  0
    5.7984   -0.8305   -0.1225 C   0  0  0  0  0  0  0  0  0  0  0  0
    4.4094   -0.9759   -0.0766 C   0  0  0  0  0  0  0  0  0  0  0  0
    3.7652   -2.4242    0.6235 Cl  0  0  0  0  0  0  0  0  0  0  0  0
   -0.2305   -0.7896    0.4795 O   0  0  0  0  0  0  0  0  0  0  0  0
   -1.4658   -1.3494    0.7033 C   0  0  0  0  0  0  0  0  0  0  0  0
   -1.4469   -2.5559    1.4086 C   0  0  0  0  0  0  0  0  0  0  0  0
   -2.6314   -3.2530    1.6231 C   0  0  0  0  0  0  0  0  0  0  0  0
   -3.8262   -2.7486    1.1189 C   0  0  0  0  0  0  0  0  0  0  0  0
   -3.8447   -1.5285    0.4326 C   0  0  0  0  0  0  0  0  0  0  0  0
   -2.6768   -0.7773    0.2655 C   0  0  0  0  0  0  0  0  0  0  0  0
   -3.8869    2.4184   -2.1635 H   0  0  0  0  0  0  0  0  0  0  0  0
   -2.8145    3.4173   -1.1112 H   0  0  0  0  0  0  0  0  0  0  0  0
   -4.5823    3.5991   -1.0205 H   0  0  0  0  0  0  0  0  0  0  0  0
   -1.0972    1.7320    0.3248 H   0  0  0  0  0  0  0  0  0  0  0  0
   -1.2858    1.7597   -1.4487 H   0  0  0  0  0  0  0  0  0  0  0  0
   -0.4209   -0.5926   -1.5747 H   0  0  0  0  0  0  0  0  0  0  0  0
    1.8739   -1.0484   -0.0551 H   0  0  0  0  0  0  0  0  0  0  0  0
    3.5292    1.9713   -1.5523 H   0  0  0  0  0  0  0  0  0  0  0  0
    5.9570    2.2123   -1.6228 H   0  0  0  0  0  0  0  0  0  0  0  0
    7.4362    0.4377   -0.7171 H   0  0  0  0  0  0  0  0  0  0  0  0
    6.4482   -1.6067    0.2730 H   0  0  0  0  0  0  0  0  0  0  0  0
   -0.5065   -2.9619    1.7718 H   0  0  0  0  0  0  0  0  0  0  0  0
   -2.6212   -4.1963    2.1630 H   0  0  0  0  0  0  0  0  0  0  0  0
   -4.7524   -3.3021    1.2565 H   0  0  0  0  0  0  0  0  0  0  0  0
   -4.7965   -1.1955    0.0313 H   0  0  0  0  0  0  0  0  0  0  0  0
  1  2  1  0
  2  3  2  0
  2  4  2  0
  2  5  1  0
  5  6  1  0
  6  7  1  0
  7  8  1  0
  8  9  2  0
  8 10  1  0
 10 11  1  0
 11 12  2  0
 12 13  1  0
 13 14  2  0
 14 15  1  0
 15 16  2  0
 16 17  1  0
  7 18  1  0
 18 19  1  0
 19 20  2  0
 20 21  1  0
 21 22  2  0
 22 23  1  0
 23 24  2  0
 24  5  1  0
 16 11  1  0
 24 19  1  0
  1 25  1  0
  1 26  1  0
  1 27  1  0
  6 28  1  0
  6 29  1  0
  7 30  1  0
 10 31  1  0
 12 32  1  0
 13 33  1  0
 14 34  1  0
 15 35  1  0
 20 36  1  0
 21 37  1  0
 22 38  1  0
 23 39  1  0
M  END
$$$$
