
     RDKit          3D

 50 54  0  0  0  0  0  0  0  0999 V2000
    7.5114   -0.5502    0.0915 C   0  0  0  0  0  0  0  0  0  0  0  0
    6.6223    0.5322    0.5049 N   0  0  0  0  0  0  0  0  0  0  0  0
    5.5979    0.8239   -0.5228 C   0  0  0  0  0  0  0  0  0  0  0  0
    4.2260    0.1334   -0.3210 C   0  0  0  0  0  0  0  0  0  0  0  0
    3.6598    0.4398    1.0045 N   0  0  0  0  0  0  0  0  0  0  0  0
    2.2888    0.5802    1.1781 C   0  0  0  0  0  0  0  0  0  0  0  0
    1.7506    1.3966    2.1924 C   0  0  0  0  0  0  0  0  0  0  0  0
    0.3673    1.5600    2.3896 C   0  0  0  0  0  0  0  0  0  0  0  0
   -0.5130    0.8769    1.5485 C   0  0  0  0  0  0  0  0  0  0  0  0
   -1.8854    0.8742    1.5188 N   0  0  0  0  0  0  0  0  0  0  0  0
   -2.2210    0.0430    0.5514 C   0  0  0  0  0  0  0  0  0  0  0  0
   -3.4939   -0.3493    0.0572 C   0  0  0  0  0  0  0  0  0  0  0  0
   -3.9097    0.0530   -1.1697 C   0  0  0  0  0  0  0  0  0  0  0  0
   -3.1497    0.8492   -2.0268 N   0  0  0  0  0  0  0  0  0  0  0  0
   -5.2579   -0.3764   -1.6455 C   0  0  0  0  0  0  0  0  0  0  0  0
   -5.8105   -0.0061   -2.8826 C   0  0  0  0  0  0  0  0  0  0  0  0
   -5.1377    0.8014   -3.7222 F   0  0  0  0  0  0  0  0  0  0  0  0
   -7.0759   -0.4340   -3.2867 C   0  0  0  0  0  0  0  0  0  0  0  0
   -7.8322   -1.2482   -2.4503 C   0  0  0  0  0  0  0  0  0  0  0  0
   -7.3194   -1.6255   -1.2103 C   0  0  0  0  0  0  0  0  0  0  0  0
   -6.0481   -1.1891   -0.8177 C   0  0  0  0  0  0  0  0  0  0  0  0
   -5.5677   -1.5829    0.4320 N   0  0  0  0  0  0  0  0  0  0  0  0
   -4.3405   -1.2312    0.9214 C   0  0  0  0  0  0  0  0  0  0  0  0
   -3.9714   -1.6716    2.0079 O   0  0  0  0  0  0  0  0  0  0  0  0
   -1.0966   -0.4729   -0.0537 N   0  0  0  0  0  0  0  0  0  0  0  0
    0.0082    0.0548    0.5608 C   0  0  0  0  0  0  0  0  0  0  0  0
    1.3825   -0.1152    0.3490 C   0  0  0  0  0  0  0  0  0  0  0  0
    4.6208    0.8821    2.0362 C   0  0  0  0  0  0  0  0  0  0  0  0
    6.0002    0.2171    1.8111 C   0  0  0  0  0  0  0  0  0  0  0  0
    8.0502   -0.2752   -0.8234 H   0  0  0  0  0  0  0  0  0  0  0  0
    6.9685   -1.4856   -0.0971 H   0  0  0  0  0  0  0  0  0  0  0  0
    8.2724   -0.7387    0.8602 H   0  0  0  0  0  0  0  0  0  0  0  0
    5.4325    1.9128   -0.5045 H   0  0  0  0  0  0  0  0  0  0  0  0
    5.9753    0.6046   -1.5318 H   0  0  0  0  0  0  0  0  0  0  0  0
    4.3375   -0.9519   -0.4230 H   0  0  0  0  0  0  0  0  0  0  0  0
    3.5660    0.4835   -1.1255 H   0  0  0  0  0  0  0  0  0  0  0  0
    2.4058    1.9549    2.8562 H   0  0  0  0  0  0  0  0  0  0  0  0
   -0.0141    2.2007    3.1755 H   0  0  0  0  0  0  0  0  0  0  0  0
   -3.7094    1.3384   -2.7281 H   0  0  0  0  0  0  0  0  0  0  0  0
   -2.5524    1.5077   -1.5223 H   0  0  0  0  0  0  0  0  0  0  0  0
   -7.4610   -0.1217   -4.2548 H   0  0  0  0  0  0  0  0  0  0  0  0
   -8.8183   -1.5850   -2.7602 H   0  0  0  0  0  0  0  0  0  0  0  0
   -7.9166   -2.2556   -0.5578 H   0  0  0  0  0  0  0  0  0  0  0  0
   -6.1199   -2.1756    1.0403 H   0  0  0  0  0  0  0  0  0  0  0  0
   -1.0954   -1.1055   -0.8397 H   0  0  0  0  0  0  0  0  0  0  0  0
    1.7315   -0.7963   -0.4221 H   0  0  0  0  0  0  0  0  0  0  0  0
    4.7207    1.9777    2.0176 H   0  0  0  0  0  0  0  0  0  0  0  0
    4.2745    0.5819    3.0349 H   0  0  0  0  0  0  0  0  0  0  0  0
    5.8609   -0.8703    1.9181 H   0  0  0  0  0  0  0  0  0  0  0  0
    6.6860    0.5335    2.6091 H   0  0  0  0  0  0  0  0  0  0  0  0
  1  2  1  0
  2  3  1  0
  3  4  1  0
  4  5  1  0
  5  6  1  0
  6  7  2  0
  7  8  1  0
  8  9  2  0
  9 10  1  0
 10 11  2  0
 11 12  1  0
 12 13  2  0
 13 14  1  0
 13 15  1  0
 15 16  2  0
 16 17  1  0
 16 18  1  0
 18 19  2  0
 19 20  1  0
 20 21  2  0
 21 22  1  0
 22 23  1  0
 23 24  2  0
 11 25  1  0
 25 26  1  0
 26 27  2  0
  5 28  1  0
 28 29  1  0
 29  2  1  0
 27  6  1  0
 26  9  1  0
 23 12  1  0
 21 15  1  0
  1 30  1  0
  1 31  1  0
  1 32  1  0
  3 33  1  0
  3 34  1  0
  4 35  1  0
  4 36  1  0
  7 37  1  0
  8 38  1  0
 14 39  1  0
 14 40  1  0
 18 41  1  0
 19 42  1  0
 20 43  1  0
 22 44  1  0
 25 45  1  0
 27 46  1  0
 28 47  1  0
 28 48  1  0
 29 49  1  0
 29 50  1  0
M  END
$$$$
