
     RDKit          3D

 42 44  0  0  0  0  0  0  0  0999 V2000
   -5.5098    0.1032   -1.1306 C   0  0  0  0  0  0  0  0  0  0  0  0
   -4.2620    0.3757   -0.3437 C   0  0  0  0  0  0  0  0  0  0  0  0
   -4.3146    0.5223    1.0436 C   0  0  0  0  0  0  0  0  0  0  0  0
   -3.1486    0.7549    1.7781 C   0  0  0  0  0  0  0  0  0  0  0  0
   -1.8948    0.8327    1.1493 C   0  0  0  0  0  0  0  0  0  0  0  0
   -0.6859    1.1023    1.9976 C   0  0  0  0  0  0  0  0  0  0  0  0
   -1.8419    0.6579   -0.2458 C   0  0  0  0  0  0  0  0  0  0  0  0
   -0.3022    0.7097   -1.1543 S   0  0  0  0  0  6  0  0  0  0  0  0
   -0.5772    0.3701   -2.5366 O   0  0  0  0  0  0  0  0  0  0  0  0
    0.3700    1.9459   -0.8206 O   0  0  0  0  0  0  0  0  0  0  0  0
    0.5958   -0.5930   -0.5119 N   0  0  0  0  0  0  0  0  0  0  0  0
   -0.0420   -1.9377   -0.6506 C   0  0  0  0  0  0  0  0  0  0  0  0
    0.8292   -2.7051   -1.6262 C   0  0  0  0  0  0  0  0  0  0  0  0
    2.2101   -2.1988   -1.2835 C   0  0  0  0  0  0  0  0  0  0  0  0
    1.9865   -0.6930   -1.0873 C   0  0  0  0  0  0  0  0  0  0  0  0
    2.9999   -0.0964   -0.1761 C   0  0  0  0  0  0  0  0  0  0  0  0
    2.9973    0.8914    0.7802 C   0  0  0  0  0  0  0  0  0  0  0  0
    4.3330    0.9597    1.2309 C   0  0  0  0  0  0  0  0  0  0  0  0
    4.9134    1.8541    2.2560 C   0  0  0  0  0  0  0  0  0  0  0  0
    5.1055    0.0749    0.5913 N   0  0  0  0  0  0  0  0  0  0  0  0
    4.2731   -0.5720   -0.3014 O   0  0  0  0  0  0  0  0  0  0  0  0
   -3.0189    0.4342   -0.9825 C   0  0  0  0  0  0  0  0  0  0  0  0
   -5.4398    0.5353   -2.1344 H   0  0  0  0  0  0  0  0  0  0  0  0
   -5.6676   -0.9760   -1.2191 H   0  0  0  0  0  0  0  0  0  0  0  0
   -6.3841    0.5499   -0.6453 H   0  0  0  0  0  0  0  0  0  0  0  0
   -5.2674    0.4649    1.5662 H   0  0  0  0  0  0  0  0  0  0  0  0
   -3.2311    0.8794    2.8568 H   0  0  0  0  0  0  0  0  0  0  0  0
   -0.2049    2.0369    1.6977 H   0  0  0  0  0  0  0  0  0  0  0  0
   -0.9563    1.2121    3.0540 H   0  0  0  0  0  0  0  0  0  0  0  0
    0.0236    0.2735    1.9390 H   0  0  0  0  0  0  0  0  0  0  0  0
   -0.0381   -2.4115    0.3379 H   0  0  0  0  0  0  0  0  0  0  0  0
   -1.0776   -1.9029   -0.9963 H   0  0  0  0  0  0  0  0  0  0  0  0
    0.7323   -3.7881   -1.5115 H   0  0  0  0  0  0  0  0  0  0  0  0
    0.5726   -2.4419   -2.6591 H   0  0  0  0  0  0  0  0  0  0  0  0
    2.5633   -2.6803   -0.3622 H   0  0  0  0  0  0  0  0  0  0  0  0
    2.9397   -2.4098   -2.0717 H   0  0  0  0  0  0  0  0  0  0  0  0
    2.0356   -0.1979   -2.0651 H   0  0  0  0  0  0  0  0  0  0  0  0
    2.1578    1.4899    1.0965 H   0  0  0  0  0  0  0  0  0  0  0  0
    4.1396    2.4675    2.7285 H   0  0  0  0  0  0  0  0  0  0  0  0
    5.6506    2.5265    1.8059 H   0  0  0  0  0  0  0  0  0  0  0  0
    5.4080    1.2727    3.0406 H   0  0  0  0  0  0  0  0  0  0  0  0
   -2.9720    0.3067   -2.0633 H   0  0  0  0  0  0  0  0  0  0  0  0
  1  2  1  0
  2  3  2  0
  3  4  1  0
  4  5  2  0
  5  6  1  0
  5  7  1  0
  7  8  1  0
  8  9  2  0
  8 10  2  0
  8 11  1  0
 11 12  1  0
 12 13  1  0
 13 14  1  0
 14 15  1  0
 15 16  1  0
 16 17  2  0
 17 18  1  0
 18 19  1  0
 18 20  2  0
 20 21  1  0
  7 22  2  0
 22  2  1  0
 15 11  1  0
 21 16  1  0
  1 23  1  0
  1 24  1  0
  1 25  1  0
  3 26  1  0
  4 27  1  0
  6 28  1  0
  6 29  1  0
  6 30  1  0
 12 31  1  0
 12 32  1  0
 13 33  1  0
 13 34  1  0
 14 35  1  0
 14 36  1  0
 15 37  1  0
 17 38  1  0
 19 39  1  0
 19 40  1  0
 19 41  1  0
 22 42  1  0
M  END
$$$$
