
     RDKit          3D

 68 74  0  0  0  0  0  0  0  0999 V2000
   -4.2020    3.6636   -0.4178 C   0  0  0  0  0  0  0  0  0  0  0  0
   -4.2225    2.2244   -0.5677 N   0  0  0  0  0  0  0  0  0  0  0  0
   -4.2576    1.3331    0.4739 C   0  0  0  0  0  0  0  0  0  0  0  0
   -4.2727    0.0651   -0.0667 C   0  0  0  0  0  0  0  0  0  0  0  0
   -4.3145   -1.1361    0.6838 C   0  0  0  0  0  0  0  0  0  0  0  0
   -3.3058   -1.9186    1.1021 C   0  0  0  0  0  0  0  0  0  0  0  0
   -1.9031   -1.7364    0.9663 C   0  0  0  0  0  0  0  0  0  0  0  0
   -1.2337   -0.5895    1.3281 C   0  0  0  0  0  0  0  0  0  0  0  0
    0.1063   -0.7702    1.0785 N   0  0  0  0  0  0  0  0  0  0  0  0
    1.1082    0.2429    1.4064 C   0  0  0  0  0  0  0  0  0  0  0  0
    1.7796    0.8464    0.1695 C   0  0  0  0  0  0  0  0  0  0  0  0
    2.7910    1.9129    0.5910 C   0  0  0  0  0  0  0  0  0  0  0  0
    3.7938    1.4430    1.5621 N   0  0  0  0  0  0  0  0  0  0  0  0
    4.7744    0.5023    0.9724 C   0  0  0  0  0  0  0  0  0  0  0  0
    5.5858    1.0862   -0.1715 C   0  0  0  0  0  0  0  0  0  0  0  0
    6.4972    2.1162    0.0649 C   0  0  0  0  0  0  0  0  0  0  0  0
    7.1932    2.6572   -1.0129 C   0  0  0  0  0  0  0  0  0  0  0  0
    6.9610    2.1639   -2.2907 C   0  0  0  0  0  0  0  0  0  0  0  0
    6.0401    1.1390   -2.4395 C   0  0  0  0  0  0  0  0  0  0  0  0
    5.3469    0.5945   -1.4148 N   0  0  0  0  0  0  0  0  0  0  0  0
    3.1451    0.8728    2.7514 C   0  0  0  0  0  0  0  0  0  0  0  0
    2.1311   -0.2318    2.4468 C   0  0  0  0  0  0  0  0  0  0  0  0
    0.3127   -2.0162    0.5146 C   0  0  0  0  0  0  0  0  0  0  0  0
    1.4785   -2.6532    0.0519 C   0  0  0  0  0  0  0  0  0  0  0  0
    1.3773   -3.9501   -0.4593 C   0  0  0  0  0  0  0  0  0  0  0  0
    0.1521   -4.6011   -0.5153 C   0  0  0  0  0  0  0  0  0  0  0  0
   -1.0072   -3.9640   -0.0652 C   0  0  0  0  0  0  0  0  0  0  0  0
   -0.9371   -2.6526    0.4566 C   0  0  0  0  0  0  0  0  0  0  0  0
   -3.9203   -3.0807    1.7871 C   0  0  0  0  0  0  0  0  0  0  0  0
   -3.3410   -4.0091    2.3227 O   0  0  0  0  0  0  0  0  0  0  0  0
   -5.2590   -2.9269    1.7240 N   0  0  0  0  0  0  0  0  0  0  0  0
   -5.5821   -1.7795    1.0942 C   0  0  0  0  0  0  0  0  0  0  0  0
   -6.7105   -1.3592    0.9137 O   0  0  0  0  0  0  0  0  0  0  0  0
   -4.2561    0.1871   -1.4879 C   0  0  0  0  0  0  0  0  0  0  0  0
   -4.2724   -0.7348   -2.5591 C   0  0  0  0  0  0  0  0  0  0  0  0
   -4.2582   -0.2643   -3.8777 C   0  0  0  0  0  0  0  0  0  0  0  0
   -4.2200    1.1017   -4.1407 C   0  0  0  0  0  0  0  0  0  0  0  0
   -4.1989    2.0361   -3.0988 C   0  0  0  0  0  0  0  0  0  0  0  0
   -4.2221    1.5556   -1.7782 C   0  0  0  0  0  0  0  0  0  0  0  0
   -3.2624    4.0390   -0.8386 H   0  0  0  0  0  0  0  0  0  0  0  0
   -5.0631    4.0795   -0.9516 H   0  0  0  0  0  0  0  0  0  0  0  0
   -4.2638    3.9246    0.6448 H   0  0  0  0  0  0  0  0  0  0  0  0
   -4.2738    1.6713    1.5038 H   0  0  0  0  0  0  0  0  0  0  0  0
   -1.5986    0.3361    1.7540 H   0  0  0  0  0  0  0  0  0  0  0  0
    0.5455    1.0599    1.8819 H   0  0  0  0  0  0  0  0  0  0  0  0
    1.0216    1.3015   -0.4802 H   0  0  0  0  0  0  0  0  0  0  0  0
    2.2757    0.0797   -0.4334 H   0  0  0  0  0  0  0  0  0  0  0  0
    2.2469    2.7508    1.0473 H   0  0  0  0  0  0  0  0  0  0  0  0
    3.2675    2.3445   -0.2957 H   0  0  0  0  0  0  0  0  0  0  0  0
    5.4928    0.1982    1.7458 H   0  0  0  0  0  0  0  0  0  0  0  0
    4.2927   -0.4193    0.6248 H   0  0  0  0  0  0  0  0  0  0  0  0
    6.6544    2.4933    1.0697 H   0  0  0  0  0  0  0  0  0  0  0  0
    7.9050    3.4633   -0.8571 H   0  0  0  0  0  0  0  0  0  0  0  0
    7.4859    2.5669   -3.1499 H   0  0  0  0  0  0  0  0  0  0  0  0
    5.8249    0.7171   -3.4177 H   0  0  0  0  0  0  0  0  0  0  0  0
    3.8999    0.4975    3.4534 H   0  0  0  0  0  0  0  0  0  0  0  0
    2.6336    1.6843    3.2855 H   0  0  0  0  0  0  0  0  0  0  0  0
    2.6593   -1.1291    2.1104 H   0  0  0  0  0  0  0  0  0  0  0  0
    1.6142   -0.5137    3.3731 H   0  0  0  0  0  0  0  0  0  0  0  0
    2.4471   -2.1658    0.0789 H   0  0  0  0  0  0  0  0  0  0  0  0
    2.2720   -4.4547   -0.8168 H   0  0  0  0  0  0  0  0  0  0  0  0
    0.0902   -5.6116   -0.9100 H   0  0  0  0  0  0  0  0  0  0  0  0
   -1.9569   -4.4894   -0.1125 H   0  0  0  0  0  0  0  0  0  0  0  0
   -5.9273   -3.5624    2.1257 H   0  0  0  0  0  0  0  0  0  0  0  0
   -4.2993   -1.8038   -2.3682 H   0  0  0  0  0  0  0  0  0  0  0  0
   -4.2794   -0.9745   -4.7026 H   0  0  0  0  0  0  0  0  0  0  0  0
   -4.2088    1.4485   -5.1723 H   0  0  0  0  0  0  0  0  0  0  0  0
   -4.1733    3.0991   -3.3150 H   0  0  0  0  0  0  0  0  0  0  0  0
  1  2  1  0
  2  3  1  0
  3  4  2  0
  4  5  1  0
  5  6  2  0
  6  7  1  0
  7  8  2  0
  8  9  1  0
  9 10  1  0
 10 11  1  0
 11 12  1  0
 12 13  1  0
 13 14  1  0
 14 15  1  0
 15 16  2  0
 16 17  1  0
 17 18  2  0
 18 19  1  0
 19 20  2  0
 13 21  1  0
 21 22  1  0
  9 23  1  0
 23 24  2  0
 24 25  1  0
 25 26  2  0
 26 27  1  0
 27 28  2  0
  6 29  1  0
 29 30  2  0
 29 31  1  0
 31 32  1  0
 32 33  2  0
  4 34  1  0
 34 35  2  0
 35 36  1  0
 36 37  2  0
 37 38  1  0
 38 39  2  0
 39  2  1  0
 32  5  1  0
 39 34  1  0
 28  7  1  0
 22 10  1  0
 28 23  1  0
 20 15  1  0
  1 40  1  0
  1 41  1  0
  1 42  1  0
  3 43  1  0
  8 44  1  0
 10 45  1  0
 11 46  1  0
 11 47  1  0
 12 48  1  0
 12 49  1  0
 14 50  1  0
 14 51  1  0
 16 52  1  0
 17 53  1  0
 18 54  1  0
 19 55  1  0
 21 56  1  0
 21 57  1  0
 22 58  1  0
 22 59  1  0
 24 60  1  0
 25 61  1  0
 26 62  1  0
 27 63  1  0
 31 64  1  0
 35 65  1  0
 36 66  1  0
 37 67  1  0
 38 68  1  0
M  END
$$$$
