
     RDKit          3D

 51 54  0  0  0  0  0  0  0  0999 V2000
    1.8657    1.3914   -2.1001 O   0  0  0  0  0  0  0  0  0  0  0  0
    1.9975    0.6703   -1.1259 C   0  0  0  0  0  0  0  0  0  0  0  0
    1.2296    0.6995   -0.0114 O   0  0  0  0  0  0  0  0  0  0  0  0
    0.1150    1.6169   -0.0330 C   0  0  2  0  0  0  0  0  0  0  0  0
   -0.3429    1.8215    1.4057 C   0  0  0  0  0  0  0  0  0  0  0  0
   -1.6273    2.5904    1.4615 C   0  0  0  0  0  0  0  0  0  0  0  0
   -2.0366    3.2766    2.6145 C   0  0  0  0  0  0  0  0  0  0  0  0
   -1.3151    3.2745    3.7759 O   0  0  0  0  0  0  0  0  0  0  0  0
   -3.2216    4.0105    2.6416 C   0  0  0  0  0  0  0  0  0  0  0  0
   -4.0270    4.0398    1.5120 C   0  0  0  0  0  0  0  0  0  0  0  0
   -5.1972    4.7393    1.4901 O   0  0  0  0  0  0  0  0  0  0  0  0
   -3.6635    3.3432    0.3678 C   0  0  0  0  0  0  0  0  0  0  0  0
   -2.4715    2.6151    0.3432 C   0  0  0  0  0  0  0  0  0  0  0  0
   -2.2283    1.9517   -0.8278 O   0  0  0  0  0  0  0  0  0  0  0  0
   -1.0544    1.1296   -0.9159 C   0  0  2  0  0  0  0  0  0  0  0  0
   -1.4038   -0.3497   -0.7612 C   0  0  0  0  0  0  0  0  0  0  0  0
   -2.2255   -0.8257    0.2759 C   0  0  0  0  0  0  0  0  0  0  0  0
   -2.4886   -2.1871    0.3903 C   0  0  0  0  0  0  0  0  0  0  0  0
   -3.2911   -2.6251    1.4041 O   0  0  0  0  0  0  0  0  0  0  0  0
   -1.9570   -3.0911   -0.5191 C   0  0  0  0  0  0  0  0  0  0  0  0
   -2.2970   -4.4116   -0.4149 O   0  0  0  0  0  0  0  0  0  0  0  0
   -1.1257   -2.6397   -1.5331 C   0  0  0  0  0  0  0  0  0  0  0  0
   -0.5301   -3.5136   -2.3945 O   0  0  0  0  0  0  0  0  0  0  0  0
   -0.8618   -1.2814   -1.6718 C   0  0  0  0  0  0  0  0  0  0  0  0
    3.0316   -0.3922   -1.0173 C   0  0  0  0  0  0  0  0  0  0  0  0
    3.0266   -1.3316    0.0270 C   0  0  0  0  0  0  0  0  0  0  0  0
    4.0119   -2.3124    0.0603 C   0  0  0  0  0  0  0  0  0  0  0  0
    4.0548   -3.2544    1.0527 O   0  0  0  0  0  0  0  0  0  0  0  0
    4.9938   -2.3692   -0.9284 C   0  0  0  0  0  0  0  0  0  0  0  0
    5.9466   -3.3484   -0.8624 O   0  0  0  0  0  0  0  0  0  0  0  0
    4.9972   -1.4422   -1.9664 C   0  0  0  0  0  0  0  0  0  0  0  0
    5.9626   -1.5127   -2.9295 O   0  0  0  0  0  0  0  0  0  0  0  0
    4.0175   -0.4524   -2.0169 C   0  0  0  0  0  0  0  0  0  0  0  0
    0.4543    2.5953   -0.4047 H   0  0  0  0  0  0  0  0  0  0  0  0
    0.4529    2.3585    1.9371 H   0  0  0  0  0  0  0  0  0  0  0  0
   -0.4627    0.8614    1.9218 H   0  0  0  0  0  0  0  0  0  0  0  0
   -0.6580    2.5619    3.7518 H   0  0  0  0  0  0  0  0  0  0  0  0
   -3.4990    4.5392    3.5476 H   0  0  0  0  0  0  0  0  0  0  0  0
   -5.3173    5.1698    2.3528 H   0  0  0  0  0  0  0  0  0  0  0  0
   -4.3096    3.3621   -0.5056 H   0  0  0  0  0  0  0  0  0  0  0  0
   -0.7338    1.2510   -1.9586 H   0  0  0  0  0  0  0  0  0  0  0  0
   -2.6812   -0.1484    0.9923 H   0  0  0  0  0  0  0  0  0  0  0  0
   -3.3548   -3.5924    1.2794 H   0  0  0  0  0  0  0  0  0  0  0  0
   -2.3848   -4.7333   -1.3329 H   0  0  0  0  0  0  0  0  0  0  0  0
   -0.3126   -4.3135   -1.8824 H   0  0  0  0  0  0  0  0  0  0  0  0
   -0.2218   -0.9513   -2.4879 H   0  0  0  0  0  0  0  0  0  0  0  0
    2.2592   -1.3008    0.7938 H   0  0  0  0  0  0  0  0  0  0  0  0
    3.3232   -3.0912    1.6730 H   0  0  0  0  0  0  0  0  0  0  0  0
    5.7331   -3.8577   -0.0576 H   0  0  0  0  0  0  0  0  0  0  0  0
    5.8197   -0.8146   -3.5874 H   0  0  0  0  0  0  0  0  0  0  0  0
    4.0090    0.2742   -2.8258 H   0  0  0  0  0  0  0  0  0  0  0  0
  1  2  2  0
  2  3  1  0
  3  4  1  0
  4  5  1  0
  5  6  1  0
  6  7  2  0
  7  8  1  0
  7  9  1  0
  9 10  2  0
 10 11  1  0
 10 12  1  0
 12 13  2  0
 13 14  1  0
 14 15  1  0
 15 16  1  0
 16 17  2  0
 17 18  1  0
 18 19  1  0
 18 20  2  0
 20 21  1  0
 20 22  1  0
 22 23  1  0
 22 24  2  0
  2 25  1  0
 25 26  2  0
 26 27  1  0
 27 28  1  0
 27 29  2  0
 29 30  1  0
 29 31  1  0
 31 32  1  0
 31 33  2  0
 15  4  1  0
 24 16  1  0
 33 25  1  0
 13  6  1  0
  4 34  1  6
  5 35  1  0
  5 36  1  0
  8 37  1  0
  9 38  1  0
 11 39  1  0
 12 40  1  0
 15 41  1  6
 17 42  1  0
 19 43  1  0
 21 44  1  0
 23 45  1  0
 24 46  1  0
 26 47  1  0
 28 48  1  0
 30 49  1  0
 32 50  1  0
 33 51  1  0
M  END
$$$$
