
     RDKit          3D

 42 45  0  0  0  0  0  0  0  0999 V2000
    1.8261   -1.3200    1.5505 C   0  0  0  0  0  0  0  0  0  0  0  0
    2.2326   -0.2399    0.6196 N   0  0  0  0  0  0  0  0  0  0  0  0
    3.6468    0.0390    0.6415 C   0  0  0  0  0  0  0  0  0  0  0  0
    4.5845   -0.8029    0.0365 C   0  0  0  0  0  0  0  0  0  0  0  0
    5.9480   -0.5258    0.1529 C   0  0  0  0  0  0  0  0  0  0  0  0
    6.3765    0.5781    0.8899 C   0  0  0  0  0  0  0  0  0  0  0  0
    5.4435    1.4031    1.5172 C   0  0  0  0  0  0  0  0  0  0  0  0
    4.0802    1.1277    1.4012 C   0  0  0  0  0  0  0  0  0  0  0  0
    1.5645   -0.3516   -0.9582 S   0  0  0  0  0  6  0  0  0  0  0  0
    1.7406   -1.7116   -1.4292 O   0  0  0  0  0  0  0  0  0  0  0  0
    1.9987    0.7801   -1.7505 O   0  0  0  0  0  0  0  0  0  0  0  0
   -0.1741   -0.1058   -0.6412 C   0  0  0  0  0  0  0  0  0  0  0  0
   -1.0834   -1.1664   -0.8609 C   0  0  0  0  0  0  0  0  0  0  0  0
   -2.4401   -0.9688   -0.6091 C   0  0  0  0  0  0  0  0  0  0  0  0
   -2.8168    0.2829   -0.1671 C   0  0  0  0  0  0  0  0  0  0  0  0
   -1.9477    1.3470    0.0188 C   0  0  0  0  0  0  0  0  0  0  0  0
   -0.5980    1.1655   -0.2081 C   0  0  0  0  0  0  0  0  0  0  0  0
   -2.7062    2.5595    0.4683 C   0  0  0  0  0  0  0  0  0  0  0  0
   -4.1768    2.0847    0.3655 C   0  0  0  0  0  0  0  0  0  0  0  0
   -4.1238    0.6470    0.0994 N   0  0  0  0  0  0  0  0  0  0  0  0
   -5.1761   -0.2285    0.0458 C   0  0  0  0  0  0  0  0  0  0  0  0
   -6.3478    0.1180    0.1794 O   0  0  0  0  0  0  0  0  0  0  0  0
   -4.7801   -1.6990   -0.0617 C   0  0  0  0  0  0  0  0  0  0  0  0
   -3.5247   -1.9593   -0.9027 C   0  0  0  0  0  0  0  0  0  0  0  0
    2.1784   -2.2977    1.2078 H   0  0  0  0  0  0  0  0  0  0  0  0
    0.7393   -1.3453    1.6645 H   0  0  0  0  0  0  0  0  0  0  0  0
    2.2417   -1.1339    2.5472 H   0  0  0  0  0  0  0  0  0  0  0  0
    4.2693   -1.6750   -0.5301 H   0  0  0  0  0  0  0  0  0  0  0  0
    6.6755   -1.1725   -0.3312 H   0  0  0  0  0  0  0  0  0  0  0  0
    7.4386    0.7938    0.9769 H   0  0  0  0  0  0  0  0  0  0  0  0
    5.7774    2.2605    2.0957 H   0  0  0  0  0  0  0  0  0  0  0  0
    3.3569    1.7703    1.8950 H   0  0  0  0  0  0  0  0  0  0  0  0
   -0.7319   -2.1238   -1.2399 H   0  0  0  0  0  0  0  0  0  0  0  0
    0.1128    1.9754   -0.0702 H   0  0  0  0  0  0  0  0  0  0  0  0
   -2.5235    3.4230   -0.1775 H   0  0  0  0  0  0  0  0  0  0  0  0
   -2.4500    2.8080    1.5031 H   0  0  0  0  0  0  0  0  0  0  0  0
   -4.6995    2.5689   -0.4674 H   0  0  0  0  0  0  0  0  0  0  0  0
   -4.7422    2.2741    1.2839 H   0  0  0  0  0  0  0  0  0  0  0  0
   -5.6212   -2.2600   -0.4840 H   0  0  0  0  0  0  0  0  0  0  0  0
   -4.6208   -2.0576    0.9631 H   0  0  0  0  0  0  0  0  0  0  0  0
   -3.1699   -2.9793   -0.7165 H   0  0  0  0  0  0  0  0  0  0  0  0
   -3.7774   -1.8819   -1.9674 H   0  0  0  0  0  0  0  0  0  0  0  0
  1  2  1  0
  2  3  1  0
  3  4  2  0
  4  5  1  0
  5  6  2  0
  6  7  1  0
  7  8  2  0
  2  9  1  0
  9 10  2  0
  9 11  2  0
  9 12  1  0
 12 13  2  0
 13 14  1  0
 14 15  2  0
 15 16  1  0
 16 17  2  0
 16 18  1  0
 18 19  1  0
 19 20  1  0
 20 21  1  0
 21 22  2  0
 21 23  1  0
 23 24  1  0
  8  3  1  0
 17 12  1  0
 24 14  1  0
 20 15  1  0
  1 25  1  0
  1 26  1  0
  1 27  1  0
  4 28  1  0
  5 29  1  0
  6 30  1  0
  7 31  1  0
  8 32  1  0
 13 33  1  0
 17 34  1  0
 18 35  1  0
 18 36  1  0
 19 37  1  0
 19 38  1  0
 23 39  1  0
 23 40  1  0
 24 41  1  0
 24 42  1  0
M  END
$$$$
