
     RDKit          3D

 36 35  0  0  0  0  0  0  0  0999 V2000
    4.1336    2.0525    0.6777 C   0  0  0  0  0  0  0  0  0  0  0  0
    3.4495    0.9006   -0.0444 C   0  0  0  0  0  0  0  0  0  0  0  0
    2.7907   -0.0172    0.9022 N   0  0  0  0  0  0  0  0  0  0  0  0
    3.6464   -1.1220    1.3717 C   0  0  0  0  0  0  0  0  0  0  0  0
    3.4830   -2.3622    0.5054 C   0  0  0  0  0  0  0  0  0  0  0  0
    1.4743    0.1487    1.3796 C   0  0  0  0  0  0  0  0  0  0  0  0
    0.7712   -0.7358    2.6348 S   0  0  0  0  0  0  0  0  0  0  0  0
    0.4886    1.4318    0.6512 S   0  0  0  0  0  0  0  0  0  0  0  0
   -0.0826    0.5798   -1.1466 S   0  0  0  0  0  0  0  0  0  0  0  0
   -1.3728   -0.5316   -0.6474 C   0  0  0  0  0  0  0  0  0  0  0  0
   -1.0468   -2.1849   -0.7490 S   0  0  0  0  0  0  0  0  0  0  0  0
   -2.5954    0.0335   -0.2302 N   0  0  0  0  0  0  0  0  0  0  0  0
   -3.0113    1.4059   -0.5746 C   0  0  0  0  0  0  0  0  0  0  0  0
   -3.4108    1.5550   -2.0371 C   0  0  0  0  0  0  0  0  0  0  0  0
   -3.6062   -0.7752    0.4752 C   0  0  0  0  0  0  0  0  0  0  0  0
   -4.6934   -1.3198   -0.4377 C   0  0  0  0  0  0  0  0  0  0  0  0
    4.8950    1.6855    1.3735 H   0  0  0  0  0  0  0  0  0  0  0  0
    3.4159    2.6446    1.2539 H   0  0  0  0  0  0  0  0  0  0  0  0
    4.6225    2.7149   -0.0432 H   0  0  0  0  0  0  0  0  0  0  0  0
    2.7420    1.3007   -0.7712 H   0  0  0  0  0  0  0  0  0  0  0  0
    4.1868    0.3344   -0.6257 H   0  0  0  0  0  0  0  0  0  0  0  0
    3.4279   -1.3692    2.4139 H   0  0  0  0  0  0  0  0  0  0  0  0
    4.6917   -0.7919    1.3544 H   0  0  0  0  0  0  0  0  0  0  0  0
    2.4524   -2.7294    0.5241 H   0  0  0  0  0  0  0  0  0  0  0  0
    4.1373   -3.1633    0.8626 H   0  0  0  0  0  0  0  0  0  0  0  0
    3.7407   -2.1506   -0.5374 H   0  0  0  0  0  0  0  0  0  0  0  0
   -2.2105    2.1116   -0.3440 H   0  0  0  0  0  0  0  0  0  0  0  0
   -3.8552    1.6924    0.0634 H   0  0  0  0  0  0  0  0  0  0  0  0
   -2.5866    1.3078   -2.7120 H   0  0  0  0  0  0  0  0  0  0  0  0
   -3.7142    2.5870   -2.2396 H   0  0  0  0  0  0  0  0  0  0  0  0
   -4.2495    0.9019   -2.2925 H   0  0  0  0  0  0  0  0  0  0  0  0
   -4.0534   -0.1527    1.2593 H   0  0  0  0  0  0  0  0  0  0  0  0
   -3.1229   -1.6044    1.0008 H   0  0  0  0  0  0  0  0  0  0  0  0
   -5.3131   -0.5121   -0.8378 H   0  0  0  0  0  0  0  0  0  0  0  0
   -5.3512   -1.9931    0.1209 H   0  0  0  0  0  0  0  0  0  0  0  0
   -4.2736   -1.8731   -1.2829 H   0  0  0  0  0  0  0  0  0  0  0  0
  1  2  1  0
  2  3  1  0
  3  4  1  0
  4  5  1  0
  3  6  1  0
  6  7  2  0
  6  8  1  0
  8  9  1  0
  9 10  1  0
 10 11  2  0
 10 12  1  0
 12 13  1  0
 13 14  1  0
 12 15  1  0
 15 16  1  0
  1 17  1  0
  1 18  1  0
  1 19  1  0
  2 20  1  0
  2 21  1  0
  4 22  1  0
  4 23  1  0
  5 24  1  0
  5 25  1  0
  5 26  1  0
 13 27  1  0
 13 28  1  0
 14 29  1  0
 14 30  1  0
 14 31  1  0
 15 32  1  0
 15 33  1  0
 16 34  1  0
 16 35  1  0
 16 36  1  0
M  END
$$$$
