
     RDKit          3D

 68 71  0  0  0  0  0  0  0  0999 V2000
   -0.9339   -0.2081   -2.3236 C   0  0  0  0  0  0  0  0  0  0  0  0
   -1.5208   -0.2599   -0.9346 C   0  0  0  0  0  0  0  0  0  0  0  0
   -2.8999   -0.4754   -0.7937 C   0  0  0  0  0  0  0  0  0  0  0  0
   -3.5768   -0.5315    0.4473 C   0  0  0  0  0  0  0  0  0  0  0  0
   -4.9885   -0.7864    0.5300 C   0  0  0  0  0  0  0  0  0  0  0  0
   -5.9259   -0.9854   -0.6742 C   0  0  0  0  0  0  0  0  0  0  0  0
   -6.0168    0.2365   -1.5927 C   0  0  0  0  0  0  0  0  0  0  0  0
   -5.6663   -2.2816   -1.4458 C   0  0  0  0  0  0  0  0  0  0  0  0
   -5.5747   -0.8532    1.8028 C   0  0  0  0  0  0  0  0  0  0  0  0
   -6.9103   -1.1339    1.9486 O   0  0  0  0  0  0  0  0  0  0  0  0
   -4.8441   -0.6422    2.9619 C   0  0  0  0  0  0  0  0  0  0  0  0
   -5.5589   -0.7302    4.1355 O   0  0  0  0  0  0  0  0  0  0  0  0
   -3.4796   -0.3498    2.8930 C   0  0  0  0  0  0  0  0  0  0  0  0
   -2.8216    0.0006    4.1777 C   0  0  0  0  0  0  0  0  0  0  0  0
   -3.3204   -0.3419    5.2530 O   0  0  0  0  0  0  0  0  0  0  0  0
   -2.7937   -0.3327    1.6351 C   0  0  0  0  0  0  0  0  0  0  0  0
   -1.3762   -0.1562    1.4697 C   0  0  0  0  0  0  0  0  0  0  0  0
   -0.5897   -0.0611    2.5987 O   0  0  0  0  0  0  0  0  0  0  0  0
   -0.7323   -0.1154    0.2139 C   0  0  0  0  0  0  0  0  0  0  0  0
    0.7300    0.0734    0.0790 C   0  0  0  0  0  0  0  0  0  0  0  0
    1.6171   -1.0041    0.0111 C   0  0  0  0  0  0  0  0  0  0  0  0
    1.1537   -2.4241    0.2003 C   0  0  0  0  0  0  0  0  0  0  0  0
    2.9849   -0.7475   -0.1873 C   0  0  0  0  0  0  0  0  0  0  0  0
    3.5386    0.5478   -0.3745 C   0  0  0  0  0  0  0  0  0  0  0  0
    4.9432    0.7887   -0.5834 C   0  0  0  0  0  0  0  0  0  0  0  0
    5.9880   -0.3299   -0.7350 C   0  0  0  0  0  0  0  0  0  0  0  0
    6.2404   -1.1202    0.5490 C   0  0  0  0  0  0  0  0  0  0  0  0
    5.7548   -1.2117   -1.9670 C   0  0  0  0  0  0  0  0  0  0  0  0
    5.3722    2.1246   -0.7049 C   0  0  0  0  0  0  0  0  0  0  0  0
    6.6918    2.4909   -0.8126 O   0  0  0  0  0  0  0  0  0  0  0  0
    4.4733    3.1852   -0.7538 C   0  0  0  0  0  0  0  0  0  0  0  0
    4.9655    4.4430   -0.9802 O   0  0  0  0  0  0  0  0  0  0  0  0
    3.1144    2.9588   -0.6042 C   0  0  0  0  0  0  0  0  0  0  0  0
    2.2316    4.1321   -0.8269 C   0  0  0  0  0  0  0  0  0  0  0  0
    1.1418    4.0491   -1.3966 O   0  0  0  0  0  0  0  0  0  0  0  0
    2.6256    1.6472   -0.3406 C   0  0  0  0  0  0  0  0  0  0  0  0
    1.2690    1.3660   -0.0263 C   0  0  0  0  0  0  0  0  0  0  0  0
    0.4330    2.4005    0.3308 O   0  0  0  0  0  0  0  0  0  0  0  0
   -0.2031   -1.0102   -2.4596 H   0  0  0  0  0  0  0  0  0  0  0  0
   -0.4606    0.7625   -2.5028 H   0  0  0  0  0  0  0  0  0  0  0  0
   -1.6995   -0.3397   -3.0935 H   0  0  0  0  0  0  0  0  0  0  0  0
   -3.4482   -0.6093   -1.7194 H   0  0  0  0  0  0  0  0  0  0  0  0
   -6.9489   -1.1035   -0.2970 H   0  0  0  0  0  0  0  0  0  0  0  0
   -5.2029    0.3009   -2.3169 H   0  0  0  0  0  0  0  0  0  0  0  0
   -6.9576    0.1913   -2.1636 H   0  0  0  0  0  0  0  0  0  0  0  0
   -6.0294    1.1675   -1.0109 H   0  0  0  0  0  0  0  0  0  0  0  0
   -6.4911   -2.4748   -2.1408 H   0  0  0  0  0  0  0  0  0  0  0  0
   -5.5880   -3.1403   -0.7650 H   0  0  0  0  0  0  0  0  0  0  0  0
   -4.7486   -2.2413   -2.0424 H   0  0  0  0  0  0  0  0  0  0  0  0
   -7.0626   -1.1068    2.9152 H   0  0  0  0  0  0  0  0  0  0  0  0
   -4.9117   -0.6720    4.8806 H   0  0  0  0  0  0  0  0  0  0  0  0
   -1.9201    0.6293    4.1618 H   0  0  0  0  0  0  0  0  0  0  0  0
    0.2825    0.2994    2.3499 H   0  0  0  0  0  0  0  0  0  0  0  0
    0.3447   -2.6691   -0.4936 H   0  0  0  0  0  0  0  0  0  0  0  0
    1.9638   -3.1408    0.0066 H   0  0  0  0  0  0  0  0  0  0  0  0
    0.8094   -2.5735    1.2283 H   0  0  0  0  0  0  0  0  0  0  0  0
    3.6282   -1.6214   -0.1927 H   0  0  0  0  0  0  0  0  0  0  0  0
    6.9566    0.1343   -0.9542 H   0  0  0  0  0  0  0  0  0  0  0  0
    7.1252   -1.7582    0.4309 H   0  0  0  0  0  0  0  0  0  0  0  0
    5.4106   -1.7715    0.8348 H   0  0  0  0  0  0  0  0  0  0  0  0
    6.4307   -0.4427    1.3896 H   0  0  0  0  0  0  0  0  0  0  0  0
    6.5604   -1.9467   -2.0646 H   0  0  0  0  0  0  0  0  0  0  0  0
    4.8067   -1.7486   -1.9635 H   0  0  0  0  0  0  0  0  0  0  0  0
    5.7659   -0.6008   -2.8776 H   0  0  0  0  0  0  0  0  0  0  0  0
    7.2093    1.9140   -0.2228 H   0  0  0  0  0  0  0  0  0  0  0  0
    5.9333    4.3224   -1.0954 H   0  0  0  0  0  0  0  0  0  0  0  0
    2.6213    5.1078   -0.4846 H   0  0  0  0  0  0  0  0  0  0  0  0
    0.0850    2.7799   -0.5167 H   0  0  0  0  0  0  0  0  0  0  0  0
  1  2  1  0
  2  3  2  0
  3  4  1  0
  4  5  2  0
  5  6  1  0
  6  7  1  0
  6  8  1  0
  5  9  1  0
  9 10  1  0
  9 11  2  0
 11 12  1  0
 11 13  1  0
 13 14  1  0
 14 15  2  0
 13 16  2  0
 16 17  1  0
 17 18  1  0
 17 19  2  0
 19 20  1  0
 20 21  2  0
 21 22  1  0
 21 23  1  0
 23 24  2  0
 24 25  1  0
 25 26  1  0
 26 27  1  0
 26 28  1  0
 25 29  2  0
 29 30  1  0
 29 31  1  0
 31 32  1  0
 31 33  2  0
 33 34  1  0
 34 35  2  0
 33 36  1  0
 36 37  2  0
 37 38  1  0
 19  2  1  0
 37 20  1  0
 16  4  1  0
 36 24  1  0
  1 39  1  0
  1 40  1  0
  1 41  1  0
  3 42  1  0
  6 43  1  0
  7 44  1  0
  7 45  1  0
  7 46  1  0
  8 47  1  0
  8 48  1  0
  8 49  1  0
 10 50  1  0
 12 51  1  0
 14 52  1  0
 18 53  1  0
 22 54  1  0
 22 55  1  0
 22 56  1  0
 23 57  1  0
 26 58  1  0
 27 59  1  0
 27 60  1  0
 27 61  1  0
 28 62  1  0
 28 63  1  0
 28 64  1  0
 30 65  1  0
 32 66  1  0
 34 67  1  0
 38 68  1  0
M  END
$$$$
