
     RDKit          3D

 48 51  0  0  0  0  0  0  0  0999 V2000
   -5.8521    0.0003    0.9856 C   0  0  0  0  0  0  0  0  0  0  0  0
   -5.6037    0.8763   -0.2199 C   0  0  0  0  0  0  0  0  0  0  0  0
   -6.5681    1.3838   -0.8000 O   0  0  0  0  0  0  0  0  0  0  0  0
   -4.2756    1.0826   -0.6162 N   0  0  0  0  0  0  0  0  0  0  0  0
   -4.0674    2.1796   -1.5548 C   0  0  0  0  0  0  0  0  0  0  0  0
   -3.2251    0.1742   -0.3734 C   0  0  0  0  0  0  0  0  0  0  0  0
   -3.4959   -1.0438   -0.0229 N   0  0  0  0  0  0  0  0  0  0  0  0
   -2.4520   -1.9535    0.1793 C   0  0  0  0  0  0  0  0  0  0  0  0
   -2.8044   -3.2423    0.5971 C   0  0  0  0  0  0  0  0  0  0  0  0
   -1.8316   -4.2147    0.8159 C   0  0  0  0  0  0  0  0  0  0  0  0
   -0.4923   -3.9009    0.6180 C   0  0  0  0  0  0  0  0  0  0  0  0
   -0.1268   -2.6180    0.1992 C   0  0  0  0  0  0  0  0  0  0  0  0
   -1.1004   -1.6323   -0.0288 C   0  0  0  0  0  0  0  0  0  0  0  0
   -0.7737   -0.3128   -0.4508 N   0  0  0  0  0  0  0  0  0  0  0  0
    0.6152    0.1238   -0.5925 C   0  0  0  0  0  0  0  0  0  0  0  0
    1.2580    0.4823    0.7483 C   0  0  0  0  0  0  0  0  0  0  0  0
    0.5826    0.5128    1.7848 O   0  0  0  0  0  0  0  0  0  0  0  0
    2.6141    0.7499    0.7946 N   0  0  0  0  0  0  0  0  0  0  0  0
    3.2346    1.0316    2.0988 C   0  0  0  0  0  0  0  0  0  0  0  0
    4.7461    1.0904    1.8901 C   0  0  0  0  0  0  0  0  0  0  0  0
    4.8430    1.1044    0.3983 C   0  0  0  0  0  0  0  0  0  0  0  0
    6.0034    1.2728   -0.3456 C   0  0  0  0  0  0  0  0  0  0  0  0
    5.9102    1.2322   -1.7336 C   0  0  0  0  0  0  0  0  0  0  0  0
    4.6703    1.0250   -2.3489 C   0  0  0  0  0  0  0  0  0  0  0  0
    3.5067    0.8511   -1.5862 C   0  0  0  0  0  0  0  0  0  0  0  0
    3.5980    0.8844   -0.2045 C   0  0  0  0  0  0  0  0  0  0  0  0
   -1.7670    0.6605   -0.5536 C   0  0  0  0  0  0  0  0  0  0  0  0
   -1.5258    1.8428   -0.7714 O   0  0  0  0  0  0  0  0  0  0  0  0
   -5.9910   -1.0376    0.6740 H   0  0  0  0  0  0  0  0  0  0  0  0
   -5.0442    0.0864    1.7168 H   0  0  0  0  0  0  0  0  0  0  0  0
   -6.7677    0.3392    1.4815 H   0  0  0  0  0  0  0  0  0  0  0  0
   -3.6497    3.0299   -1.0073 H   0  0  0  0  0  0  0  0  0  0  0  0
   -4.9973    2.5141   -2.0229 H   0  0  0  0  0  0  0  0  0  0  0  0
   -3.3880    1.8741   -2.3563 H   0  0  0  0  0  0  0  0  0  0  0  0
   -3.8532   -3.4836    0.7529 H   0  0  0  0  0  0  0  0  0  0  0  0
   -2.1205   -5.2099    1.1434 H   0  0  0  0  0  0  0  0  0  0  0  0
    0.2729   -4.6530    0.7951 H   0  0  0  0  0  0  0  0  0  0  0  0
    0.9328   -2.4231    0.0747 H   0  0  0  0  0  0  0  0  0  0  0  0
    0.6371    1.0223   -1.2177 H   0  0  0  0  0  0  0  0  0  0  0  0
    1.1826   -0.6596   -1.1009 H   0  0  0  0  0  0  0  0  0  0  0  0
    2.9543    0.2624    2.8275 H   0  0  0  0  0  0  0  0  0  0  0  0
    2.8457    1.9929    2.4571 H   0  0  0  0  0  0  0  0  0  0  0  0
    5.1797    1.9857    2.3449 H   0  0  0  0  0  0  0  0  0  0  0  0
    5.2333    0.1969    2.2937 H   0  0  0  0  0  0  0  0  0  0  0  0
    6.9619    1.4322    0.1389 H   0  0  0  0  0  0  0  0  0  0  0  0
    6.8014    1.3650   -2.3424 H   0  0  0  0  0  0  0  0  0  0  0  0
    4.6094    1.0051   -3.4352 H   0  0  0  0  0  0  0  0  0  0  0  0
    2.5803    0.7179   -2.1246 H   0  0  0  0  0  0  0  0  0  0  0  0
  1  2  1  0
  2  3  2  0
  2  4  1  0
  4  5  1  0
  4  6  1  0
  6  7  2  0
  7  8  1  0
  8  9  2  0
  9 10  1  0
 10 11  2  0
 11 12  1  0
 12 13  2  0
 13 14  1  0
 14 15  1  0
 15 16  1  0
 16 17  2  0
 16 18  1  0
 18 19  1  0
 19 20  1  0
 20 21  1  0
 21 22  2  0
 22 23  1  0
 23 24  2  0
 24 25  1  0
 25 26  2  0
 14 27  1  0
 27 28  2  0
 27  6  1  0
 13  8  1  0
 26 18  1  0
 26 21  1  0
  1 29  1  0
  1 30  1  0
  1 31  1  0
  5 32  1  0
  5 33  1  0
  5 34  1  0
  9 35  1  0
 10 36  1  0
 11 37  1  0
 12 38  1  0
 15 39  1  0
 15 40  1  0
 19 41  1  0
 19 42  1  0
 20 43  1  0
 20 44  1  0
 22 45  1  0
 23 46  1  0
 24 47  1  0
 25 48  1  0
M  END
$$$$
