
     RDKit          3D

 48 50  0  0  0  0  0  0  0  0999 V2000
    7.0007    1.5575    1.5162 C   0  0  0  0  0  0  0  0  0  0  0  0
    5.6554    0.8850    1.5951 C   0  0  0  0  0  0  0  0  0  0  0  0
    5.2640    0.3623    2.6371 O   0  0  0  0  0  0  0  0  0  0  0  0
    4.7862    0.8559    0.3819 C   0  0  0  0  0  0  0  0  0  0  0  0
    5.1765    1.4304   -0.8301 C   0  0  0  0  0  0  0  0  0  0  0  0
    4.3207    1.3722   -1.9302 C   0  0  0  0  0  0  0  0  0  0  0  0
    3.0759    0.7432   -1.8277 C   0  0  0  0  0  0  0  0  0  0  0  0
    2.6715    0.1642   -0.6249 C   0  0  0  0  0  0  0  0  0  0  0  0
    1.4349   -0.4885   -0.4335 N   0  0  0  0  0  0  0  0  0  0  0  0
    0.4316   -0.6873   -1.3657 C   0  0  0  0  0  0  0  0  0  0  0  0
    0.4495   -0.3074   -2.5331 O   0  0  0  0  0  0  0  0  0  0  0  0
   -0.8002   -1.4056   -0.8191 C   0  0  0  0  0  0  0  0  0  0  0  0
   -0.4692   -2.7571   -0.1559 C   0  0  0  0  0  0  0  0  0  0  0  0
   -0.7709   -2.7620    1.3419 C   0  0  0  0  0  0  0  0  0  0  0  0
   -2.2086   -2.3263    1.6178 C   0  0  0  0  0  0  0  0  0  0  0  0
   -2.6208   -1.1677    0.8313 N   0  0  0  0  0  0  0  0  0  0  0  0
   -3.9339   -0.7284    0.9948 C   0  0  0  0  0  0  0  0  0  0  0  0
   -4.7032   -1.2127    1.8234 O   0  0  0  0  0  0  0  0  0  0  0  0
   -4.4456    0.3740    0.1646 C   0  0  0  0  0  0  0  0  0  0  0  0
   -4.9575    1.5155    0.7910 C   0  0  0  0  0  0  0  0  0  0  0  0
   -5.4788    2.5541    0.0164 C   0  0  0  0  0  0  0  0  0  0  0  0
   -5.5032    2.4450   -1.3763 C   0  0  0  0  0  0  0  0  0  0  0  0
   -5.0152    1.2937   -1.9970 C   0  0  0  0  0  0  0  0  0  0  0  0
   -4.4970    0.2588   -1.2230 C   0  0  0  0  0  0  0  0  0  0  0  0
   -4.0444   -0.8428   -1.8393 F   0  0  0  0  0  0  0  0  0  0  0  0
   -1.5711   -0.4556    0.1010 C   0  0  0  0  0  0  0  0  0  0  0  0
    3.5349    0.2257    0.4764 C   0  0  0  0  0  0  0  0  0  0  0  0
    6.8819    2.6154    1.2683 H   0  0  0  0  0  0  0  0  0  0  0  0
    7.6341    1.0524    0.7823 H   0  0  0  0  0  0  0  0  0  0  0  0
    7.4929    1.4918    2.4917 H   0  0  0  0  0  0  0  0  0  0  0  0
    6.1350    1.9267   -0.9482 H   0  0  0  0  0  0  0  0  0  0  0  0
    4.6187    1.8171   -2.8774 H   0  0  0  0  0  0  0  0  0  0  0  0
    2.4467    0.7237   -2.7126 H   0  0  0  0  0  0  0  0  0  0  0  0
    1.2879   -0.8704    0.4924 H   0  0  0  0  0  0  0  0  0  0  0  0
   -1.4332   -1.6302   -1.6894 H   0  0  0  0  0  0  0  0  0  0  0  0
   -1.0836   -3.5346   -0.6295 H   0  0  0  0  0  0  0  0  0  0  0  0
    0.5719   -3.0532   -0.3282 H   0  0  0  0  0  0  0  0  0  0  0  0
   -0.0776   -2.0851    1.8557 H   0  0  0  0  0  0  0  0  0  0  0  0
   -0.5999   -3.7602    1.7601 H   0  0  0  0  0  0  0  0  0  0  0  0
   -2.3298   -2.0875    2.6810 H   0  0  0  0  0  0  0  0  0  0  0  0
   -2.9010   -3.1453    1.3874 H   0  0  0  0  0  0  0  0  0  0  0  0
   -4.9560    1.5897    1.8761 H   0  0  0  0  0  0  0  0  0  0  0  0
   -5.8750    3.4449    0.4992 H   0  0  0  0  0  0  0  0  0  0  0  0
   -5.9133    3.2535   -1.9774 H   0  0  0  0  0  0  0  0  0  0  0  0
   -5.0412    1.1937   -3.0779 H   0  0  0  0  0  0  0  0  0  0  0  0
   -0.9170   -0.0062    0.8591 H   0  0  0  0  0  0  0  0  0  0  0  0
   -1.9657    0.3866   -0.4722 H   0  0  0  0  0  0  0  0  0  0  0  0
    3.2423   -0.2188    1.4261 H   0  0  0  0  0  0  0  0  0  0  0  0
  1  2  1  0
  2  3  2  0
  2  4  1  0
  4  5  2  0
  5  6  1  0
  6  7  2  0
  7  8  1  0
  8  9  1  0
  9 10  1  0
 10 11  2  0
 10 12  1  0
 12 13  1  0
 13 14  1  0
 14 15  1  0
 15 16  1  0
 16 17  1  0
 17 18  2  0
 17 19  1  0
 19 20  2  0
 20 21  1  0
 21 22  2  0
 22 23  1  0
 23 24  2  0
 24 25  1  0
 16 26  1  0
  8 27  2  0
 27  4  1  0
 26 12  1  0
 24 19  1  0
  1 28  1  0
  1 29  1  0
  1 30  1  0
  5 31  1  0
  6 32  1  0
  7 33  1  0
  9 34  1  0
 12 35  1  0
 13 36  1  0
 13 37  1  0
 14 38  1  0
 14 39  1  0
 15 40  1  0
 15 41  1  0
 20 42  1  0
 21 43  1  0
 22 44  1  0
 23 45  1  0
 26 46  1  0
 26 47  1  0
 27 48  1  0
M  END
$$$$
