
     RDKit          3D

 50 52  0  0  0  0  0  0  0  0999 V2000
    4.7110    0.1576    1.3604 C   0  0  0  0  0  0  0  0  0  0  0  0
    4.3108    1.5346    0.8533 C   0  0  0  0  0  0  0  0  0  0  0  0
    4.6796    1.7840   -0.6137 C   0  0  0  0  0  0  0  0  0  0  0  0
    4.0429    0.8123   -1.6078 C   0  0  0  0  0  0  0  0  0  0  0  0
    2.5289    0.9061   -1.6422 C   0  0  0  0  0  0  0  0  0  0  0  0
    1.9047    1.9153   -1.3324 O   0  0  0  0  0  0  0  0  0  0  0  0
    1.9249   -0.2423   -2.0945 N   0  0  0  0  0  0  0  0  0  0  0  0
    0.4917   -0.4212   -2.0259 C   0  0  0  0  0  0  0  0  0  0  0  0
    0.2020   -1.2505   -0.8179 C   0  0  0  0  0  0  0  0  0  0  0  0
    0.4470   -2.5508   -0.7304 N   0  0  0  0  0  0  0  0  0  0  0  0
    0.0698   -2.9120    0.5361 C   0  0  0  0  0  0  0  0  0  0  0  0
    0.0939   -4.1509    1.1865 C   0  0  0  0  0  0  0  0  0  0  0  0
   -0.3549   -4.1861    2.5081 C   0  0  0  0  0  0  0  0  0  0  0  0
   -0.7951   -3.0089    3.1059 C   0  0  0  0  0  0  0  0  0  0  0  0
   -0.8382   -1.7878    2.5189 N   0  0  0  0  0  0  0  0  0  0  0  0
   -0.3973   -1.8149    1.2451 C   0  0  0  0  0  0  0  0  0  0  0  0
   -0.3113   -0.7633    0.3691 N   0  0  0  0  0  0  0  0  0  0  0  0
   -0.6430    0.6114    0.7057 C   0  0  0  0  0  0  0  0  0  0  0  0
   -1.9304    1.0701    0.0667 C   0  0  0  0  0  0  0  0  0  0  0  0
   -1.9430    2.1903   -0.7742 C   0  0  0  0  0  0  0  0  0  0  0  0
   -3.1340    2.6198   -1.3584 C   0  0  0  0  0  0  0  0  0  0  0  0
   -4.3298    1.9438   -1.1028 C   0  0  0  0  0  0  0  0  0  0  0  0
   -4.3398    0.8372   -0.2546 C   0  0  0  0  0  0  0  0  0  0  0  0
   -5.4368    0.0936    0.0840 O   0  0  0  0  0  0  0  0  0  0  0  0
   -6.6765    0.4743   -0.4980 C   0  0  0  0  0  0  0  0  0  0  0  0
   -3.1422    0.4109    0.3285 C   0  0  0  0  0  0  0  0  0  0  0  0
    5.7764   -0.0288    1.1921 H   0  0  0  0  0  0  0  0  0  0  0  0
    4.1379   -0.6341    0.8692 H   0  0  0  0  0  0  0  0  0  0  0  0
    4.5186    0.0828    2.4356 H   0  0  0  0  0  0  0  0  0  0  0  0
    4.8127    2.2926    1.4668 H   0  0  0  0  0  0  0  0  0  0  0  0
    3.2350    1.6745    1.0067 H   0  0  0  0  0  0  0  0  0  0  0  0
    4.3963    2.8119   -0.8731 H   0  0  0  0  0  0  0  0  0  0  0  0
    5.7698    1.7276   -0.7190 H   0  0  0  0  0  0  0  0  0  0  0  0
    4.3531   -0.2156   -1.3880 H   0  0  0  0  0  0  0  0  0  0  0  0
    4.4005    1.0471   -2.6186 H   0  0  0  0  0  0  0  0  0  0  0  0
    2.4673   -1.0956   -2.1482 H   0  0  0  0  0  0  0  0  0  0  0  0
   -0.0201    0.5407   -2.0299 H   0  0  0  0  0  0  0  0  0  0  0  0
    0.1917   -0.9692   -2.9248 H   0  0  0  0  0  0  0  0  0  0  0  0
    0.4476   -5.0392    0.6777 H   0  0  0  0  0  0  0  0  0  0  0  0
   -0.3586   -5.1183    3.0642 H   0  0  0  0  0  0  0  0  0  0  0  0
   -1.1429   -3.0224    4.1364 H   0  0  0  0  0  0  0  0  0  0  0  0
   -0.7247    0.7036    1.7944 H   0  0  0  0  0  0  0  0  0  0  0  0
    0.2045    1.2327    0.4045 H   0  0  0  0  0  0  0  0  0  0  0  0
   -1.0224    2.7331   -0.9840 H   0  0  0  0  0  0  0  0  0  0  0  0
   -3.1315    3.4875   -2.0132 H   0  0  0  0  0  0  0  0  0  0  0  0
   -5.2343    2.3109   -1.5749 H   0  0  0  0  0  0  0  0  0  0  0  0
   -6.6389    0.3973   -1.5902 H   0  0  0  0  0  0  0  0  0  0  0  0
   -6.9696    1.4799   -0.1797 H   0  0  0  0  0  0  0  0  0  0  0  0
   -7.4406   -0.2230   -0.1417 H   0  0  0  0  0  0  0  0  0  0  0  0
   -3.1628   -0.4485    0.9977 H   0  0  0  0  0  0  0  0  0  0  0  0
  1  2  1  0
  2  3  1  0
  3  4  1  0
  4  5  1  0
  5  6  2  0
  5  7  1  0
  7  8  1  0
  8  9  1  0
  9 10  2  0
 10 11  1  0
 11 12  2  0
 12 13  1  0
 13 14  2  0
 14 15  1  0
 15 16  2  0
 16 17  1  0
 17 18  1  0
 18 19  1  0
 19 20  2  0
 20 21  1  0
 21 22  2  0
 22 23  1  0
 23 24  1  0
 24 25  1  0
 23 26  2  0
 17  9  1  0
 26 19  1  0
 16 11  1  0
  1 27  1  0
  1 28  1  0
  1 29  1  0
  2 30  1  0
  2 31  1  0
  3 32  1  0
  3 33  1  0
  4 34  1  0
  4 35  1  0
  7 36  1  0
  8 37  1  0
  8 38  1  0
 12 39  1  0
 13 40  1  0
 14 41  1  0
 18 42  1  0
 18 43  1  0
 20 44  1  0
 21 45  1  0
 22 46  1  0
 25 47  1  0
 25 48  1  0
 25 49  1  0
 26 50  1  0
M  END
$$$$
