
     RDKit          3D

 45 47  0  0  0  0  0  0  0  0999 V2000
   -2.2164    3.9108   -2.3709 C   0  0  0  0  0  0  0  0  0  0  0  0
   -1.8663    2.8282   -1.4845 N   0  0  0  0  0  0  0  0  0  0  0  0
   -2.2733    1.5331   -1.7702 C   0  0  0  0  0  0  0  0  0  0  0  0
   -2.8378    1.2316   -2.8178 O   0  0  0  0  0  0  0  0  0  0  0  0
   -1.9137    0.5203   -0.6794 C   0  0  0  0  0  0  0  0  0  0  0  0
   -0.4583    0.1022   -0.8947 C   0  0  0  0  0  0  0  0  0  0  0  0
   -0.0195   -0.7817    0.2363 N   0  0  0  0  0  0  0  0  0  0  0  0
    0.6653    0.0702    1.5675 S   0  0  0  0  0  6  0  0  0  0  0  0
    1.0557   -0.8413    2.6204 O   0  0  0  0  0  0  0  0  0  0  0  0
   -0.1838    1.2159    1.8344 O   0  0  0  0  0  0  0  0  0  0  0  0
    2.1816    0.6833    0.8617 C   0  0  0  0  0  0  0  0  0  0  0  0
    3.0892   -0.2285    0.3162 C   0  0  0  0  0  0  0  0  0  0  0  0
    4.2719    0.2406   -0.2560 C   0  0  0  0  0  0  0  0  0  0  0  0
    4.5571    1.6132   -0.2721 C   0  0  0  0  0  0  0  0  0  0  0  0
    5.8167    2.1163   -0.9154 C   0  0  0  0  0  0  0  0  0  0  0  0
    3.6324    2.5154    0.2731 C   0  0  0  0  0  0  0  0  0  0  0  0
    2.4465    2.0542    0.8469 C   0  0  0  0  0  0  0  0  0  0  0  0
   -1.0329   -1.7663    0.5761 C   0  0  0  0  0  0  0  0  0  0  0  0
   -0.7010   -2.8844    1.3442 C   0  0  0  0  0  0  0  0  0  0  0  0
   -1.6645   -3.8541    1.6394 C   0  0  0  0  0  0  0  0  0  0  0  0
   -2.9681   -3.7369    1.1449 C   0  0  0  0  0  0  0  0  0  0  0  0
   -4.0068   -4.7646    1.4835 C   0  0  0  0  0  0  0  0  0  0  0  0
   -3.3019   -2.6213    0.3689 C   0  0  0  0  0  0  0  0  0  0  0  0
   -2.3457   -1.6427    0.0866 C   0  0  0  0  0  0  0  0  0  0  0  0
   -2.7777   -0.6153   -0.7197 O   0  0  0  0  0  0  0  0  0  0  0  0
   -1.6139    4.7832   -2.1083 H   0  0  0  0  0  0  0  0  0  0  0  0
   -2.0272    3.6251   -3.4091 H   0  0  0  0  0  0  0  0  0  0  0  0
   -3.2778    4.1401   -2.2436 H   0  0  0  0  0  0  0  0  0  0  0  0
   -1.6676    3.0640   -0.5181 H   0  0  0  0  0  0  0  0  0  0  0  0
   -2.0735    1.0141    0.2860 H   0  0  0  0  0  0  0  0  0  0  0  0
    0.2041    0.9668   -1.0004 H   0  0  0  0  0  0  0  0  0  0  0  0
   -0.3536   -0.4768   -1.8225 H   0  0  0  0  0  0  0  0  0  0  0  0
    2.8810   -1.2961    0.3342 H   0  0  0  0  0  0  0  0  0  0  0  0
    4.9743   -0.4710   -0.6859 H   0  0  0  0  0  0  0  0  0  0  0  0
    5.6408    2.3134   -1.9774 H   0  0  0  0  0  0  0  0  0  0  0  0
    6.1586    3.0393   -0.4354 H   0  0  0  0  0  0  0  0  0  0  0  0
    6.6241    1.3827   -0.8198 H   0  0  0  0  0  0  0  0  0  0  0  0
    3.8366    3.5843    0.2581 H   0  0  0  0  0  0  0  0  0  0  0  0
    1.7464    2.7653    1.2784 H   0  0  0  0  0  0  0  0  0  0  0  0
    0.3109   -3.0265    1.7138 H   0  0  0  0  0  0  0  0  0  0  0  0
   -1.3838   -4.7085    2.2521 H   0  0  0  0  0  0  0  0  0  0  0  0
   -3.5510   -5.7511    1.6189 H   0  0  0  0  0  0  0  0  0  0  0  0
   -4.5236   -4.4840    2.4064 H   0  0  0  0  0  0  0  0  0  0  0  0
   -4.7434   -4.8555    0.6784 H   0  0  0  0  0  0  0  0  0  0  0  0
   -4.3100   -2.5069   -0.0236 H   0  0  0  0  0  0  0  0  0  0  0  0
  1  2  1  0
  2  3  1  0
  3  4  2  0
  3  5  1  0
  5  6  1  0
  6  7  1  0
  7  8  1  0
  8  9  2  0
  8 10  2  0
  8 11  1  0
 11 12  2  0
 12 13  1  0
 13 14  2  0
 14 15  1  0
 14 16  1  0
 16 17  2  0
  7 18  1  0
 18 19  2  0
 19 20  1  0
 20 21  2  0
 21 22  1  0
 21 23  1  0
 23 24  2  0
 24 25  1  0
 25  5  1  0
 17 11  1  0
 24 18  1  0
  1 26  1  0
  1 27  1  0
  1 28  1  0
  2 29  1  0
  5 30  1  0
  6 31  1  0
  6 32  1  0
 12 33  1  0
 13 34  1  0
 15 35  1  0
 15 36  1  0
 15 37  1  0
 16 38  1  0
 17 39  1  0
 19 40  1  0
 20 41  1  0
 22 42  1  0
 22 43  1  0
 22 44  1  0
 23 45  1  0
M  END
$$$$
