
     RDKit          3D

 57 59  0  0  0  0  0  0  0  0999 V2000
   -8.7756    1.0283   -2.0037 C   0  0  0  0  0  0  0  0  0  0  0  0
   -9.3716   -0.0616   -1.5009 C   0  0  0  0  0  0  0  0  0  0  0  0
   -8.7638   -1.0859   -0.5670 C   0  0  0  0  0  0  0  0  0  0  0  0
   -7.4968   -0.6698    0.1775 C   0  0  0  0  0  0  0  0  0  0  0  0
   -7.6572    0.2557    1.2401 C   0  0  0  0  0  0  0  0  0  0  0  0
   -6.5724    0.6992    1.9839 C   0  0  0  0  0  0  0  0  0  0  0  0
   -5.3099    0.2203    1.6780 C   0  0  0  0  0  0  0  0  0  0  0  0
   -5.1443   -0.6985    0.6260 C   0  0  0  0  0  0  0  0  0  0  0  0
   -3.7741   -1.1842    0.3374 C   0  0  0  0  0  0  0  0  0  0  0  0
   -2.7013   -0.7429    0.9328 N   0  0  0  0  0  0  0  0  0  0  0  0
   -1.5537   -1.3165    0.4769 N   0  0  0  0  0  0  0  0  0  0  0  0
   -0.3335   -0.8514    0.9249 C   0  0  0  0  0  0  0  0  0  0  0  0
   -0.1502   -0.0201    1.8134 O   0  0  0  0  0  0  0  0  0  0  0  0
    0.8453   -1.4470    0.1573 C   0  0  0  0  0  0  0  0  0  0  0  0
    2.0302   -0.5104   -0.0102 N   0  0  0  0  0  4  0  0  0  0  0  0
    1.6925    0.7859   -0.7308 C   0  0  0  0  0  0  0  0  0  0  0  0
    2.9842    1.6281   -0.8976 C   0  0  0  0  0  0  0  0  0  0  0  0
    4.2028    0.8719   -0.5268 N   0  0  0  0  0  0  0  0  0  0  0  0
    5.4102    1.6847   -0.7860 C   0  0  0  0  0  0  0  0  0  0  0  0
    6.6862    0.8816   -0.6679 C   0  0  0  0  0  0  0  0  0  0  0  0
    7.5876    1.1203    0.3802 C   0  0  0  0  0  0  0  0  0  0  0  0
    8.7610    0.3716    0.4872 C   0  0  0  0  0  0  0  0  0  0  0  0
    9.0470   -0.6186   -0.4518 C   0  0  0  0  0  0  0  0  0  0  0  0
    8.1592   -0.8641   -1.4976 C   0  0  0  0  0  0  0  0  0  0  0  0
    6.9835   -0.1203   -1.6047 C   0  0  0  0  0  0  0  0  0  0  0  0
    4.1270    0.4657    0.9025 C   0  0  0  0  0  0  0  0  0  0  0  0
    2.7825   -0.2096    1.2730 C   0  0  0  0  0  0  0  0  0  0  0  0
   -6.2168   -1.1876   -0.1800 C   0  0  0  0  0  0  0  0  0  0  0  0
   -6.0441   -2.0184   -1.1422 O   0  0  0  0  0  1  0  0  0  0  0  0
   -7.7385    1.2559   -1.7707 H   0  0  0  0  0  0  0  0  0  0  0  0
   -9.3014    1.6935   -2.6773 H   0  0  0  0  0  0  0  0  0  0  0  0
  -10.3986   -0.2663   -1.7909 H   0  0  0  0  0  0  0  0  0  0  0  0
   -9.5181   -1.3252    0.1965 H   0  0  0  0  0  0  0  0  0  0  0  0
   -8.6234   -2.0224   -1.1188 H   0  0  0  0  0  0  0  0  0  0  0  0
   -8.6513    0.6293    1.4758 H   0  0  0  0  0  0  0  0  0  0  0  0
   -6.7140    1.4068    2.7944 H   0  0  0  0  0  0  0  0  0  0  0  0
   -4.4535    0.5550    2.2556 H   0  0  0  0  0  0  0  0  0  0  0  0
   -3.6907   -1.9596   -0.4453 H   0  0  0  0  0  0  0  0  0  0  0  0
   -1.6495   -1.9832   -0.2844 H   0  0  0  0  0  0  0  0  0  0  0  0
    0.5438   -1.7300   -0.8568 H   0  0  0  0  0  0  0  0  0  0  0  0
    1.2088   -2.3381    0.6808 H   0  0  0  0  0  0  0  0  0  0  0  0
    2.7313   -0.9629   -0.6123 H   0  0  0  0  0  0  0  0  0  0  0  0
    0.9418    1.3273   -0.1478 H   0  0  0  0  0  0  0  0  0  0  0  0
    1.2854    0.4999   -1.7060 H   0  0  0  0  0  0  0  0  0  0  0  0
    2.8998    2.5415   -0.2962 H   0  0  0  0  0  0  0  0  0  0  0  0
    3.0437    1.9468   -1.9455 H   0  0  0  0  0  0  0  0  0  0  0  0
    5.4422    2.5602   -0.1232 H   0  0  0  0  0  0  0  0  0  0  0  0
    5.3796    2.0824   -1.8105 H   0  0  0  0  0  0  0  0  0  0  0  0
    7.3879    1.8943    1.1180 H   0  0  0  0  0  0  0  0  0  0  0  0
    9.4582    0.5647    1.2996 H   0  0  0  0  0  0  0  0  0  0  0  0
    9.9649   -1.1958   -0.3708 H   0  0  0  0  0  0  0  0  0  0  0  0
    8.3874   -1.6333   -2.2333 H   0  0  0  0  0  0  0  0  0  0  0  0
    6.3006   -0.3195   -2.4277 H   0  0  0  0  0  0  0  0  0  0  0  0
    4.2809    1.3233    1.5703 H   0  0  0  0  0  0  0  0  0  0  0  0
    4.9262   -0.2536    1.1167 H   0  0  0  0  0  0  0  0  0  0  0  0
    2.9497   -1.1580    1.7917 H   0  0  0  0  0  0  0  0  0  0  0  0
    2.1729    0.4609    1.8833 H   0  0  0  0  0  0  0  0  0  0  0  0
  1  2  2  3
  2  3  1  0
  3  4  1  0
  4  5  2  0
  5  6  1  0
  6  7  2  0
  7  8  1  0
  8  9  1  0
  9 10  2  0
 10 11  1  0
 11 12  1  0
 12 13  2  0
 12 14  1  0
 14 15  1  0
 15 16  1  0
 16 17  1  0
 17 18  1  0
 18 19  1  0
 19 20  1  0
 20 21  2  0
 21 22  1  0
 22 23  2  0
 23 24  1  0
 24 25  2  0
 18 26  1  0
 26 27  1  0
  8 28  2  0
 28 29  1  0
 28  4  1  0
 27 15  1  0
 25 20  1  0
  1 30  1  0
  1 31  1  0
  2 32  1  0
  3 33  1  0
  3 34  1  0
  5 35  1  0
  6 36  1  0
  7 37  1  0
  9 38  1  0
 11 39  1  0
 14 40  1  0
 14 41  1  0
 15 42  1  0
 16 43  1  0
 16 44  1  0
 17 45  1  0
 17 46  1  0
 19 47  1  0
 19 48  1  0
 21 49  1  0
 22 50  1  0
 23 51  1  0
 24 52  1  0
 25 53  1  0
 26 54  1  0
 26 55  1  0
 27 56  1  0
 27 57  1  0
M  CHG  2  15   1  29  -1
M  END
$$$$
