
     RDKit          3D

 54 57  0  0  0  0  0  0  0  0999 V2000
    9.6056   -1.8235    1.3546 C   0  0  0  0  0  0  0  0  0  0  0  0
    9.5343   -0.8876    0.2868 O   0  0  0  0  0  0  0  0  0  0  0  0
    8.5925   -1.2789   -0.7271 C   0  0  0  0  0  0  0  0  0  0  0  0
    7.1576   -1.1859   -0.3135 C   0  0  0  0  0  0  0  0  0  0  0  0
    6.4645   -2.2329    0.1584 N   0  0  0  0  0  0  0  0  0  0  0  0
    5.2679   -1.6723    0.3954 N   0  0  0  0  0  0  0  0  0  0  0  0
    5.2364   -0.3481    0.0483 C   0  0  0  0  0  0  0  0  0  0  0  0
    4.0767    0.5348    0.1836 C   0  0  0  0  0  0  0  0  0  0  0  0
    4.2701    1.9209    0.1486 C   0  0  0  0  0  0  0  0  0  0  0  0
    3.1906    2.7928    0.2802 C   0  0  0  0  0  0  0  0  0  0  0  0
    1.8977    2.2913    0.4419 C   0  0  0  0  0  0  0  0  0  0  0  0
    1.6728    0.9155    0.4686 C   0  0  0  0  0  0  0  0  0  0  0  0
    0.3967    0.3285    0.6152 N   0  0  0  0  0  0  0  0  0  0  0  0
   -0.8202    0.9772    0.7443 C   0  0  0  0  0  0  0  0  0  0  0  0
   -1.0067    2.1881    0.7767 O   0  0  0  0  0  0  0  0  0  0  0  0
   -1.9708   -0.0107    0.8833 C   0  0  0  0  0  0  0  0  0  0  0  0
   -3.3494    0.6501    0.7692 C   0  0  0  0  0  0  0  0  0  0  0  0
   -3.6527    1.1787   -0.6435 C   0  0  2  0  0  0  0  0  0  0  0  0
   -4.7793    2.0897   -0.6708 N   0  0  0  0  0  0  0  0  0  0  0  0
   -6.0558    1.8447   -0.2702 C   0  0  0  0  0  0  0  0  0  0  0  0
   -6.7564    2.8038    0.0500 O   0  0  0  0  0  0  0  0  0  0  0  0
   -6.6114    0.4687   -0.2403 C   0  0  0  0  0  0  0  0  0  0  0  0
   -7.8114    0.3290    0.4914 C   0  0  0  0  0  0  0  0  0  0  0  0
   -8.5267   -0.8680    0.5000 C   0  0  0  0  0  0  0  0  0  0  0  0
   -8.0639   -1.9438   -0.2414 C   0  0  0  0  0  0  0  0  0  0  0  0
   -6.8795   -1.8220   -0.9695 C   0  0  0  0  0  0  0  0  0  0  0  0
   -6.1243   -0.6308   -0.9612 C   0  0  0  0  0  0  0  0  0  0  0  0
   -4.9391   -0.6973   -1.7105 N   0  0  0  0  0  0  0  0  0  0  0  0
   -3.8078    0.0556   -1.6615 C   0  0  0  0  0  0  0  0  0  0  0  0
   -2.8439   -0.3166   -2.3412 O   0  0  0  0  0  0  0  0  0  0  0  0
    2.7683    0.0445    0.3387 C   0  0  0  0  0  0  0  0  0  0  0  0
    6.4343   -0.0210   -0.3976 N   0  0  0  0  0  0  0  0  0  0  0  0
    8.6822   -1.8185    1.9404 H   0  0  0  0  0  0  0  0  0  0  0  0
    9.8137   -2.8306    0.9794 H   0  0  0  0  0  0  0  0  0  0  0  0
   10.4259   -1.5262    2.0144 H   0  0  0  0  0  0  0  0  0  0  0  0
    8.7532   -0.6084   -1.5794 H   0  0  0  0  0  0  0  0  0  0  0  0
    8.8339   -2.2916   -1.0747 H   0  0  0  0  0  0  0  0  0  0  0  0
    4.5318   -2.2399    0.7957 H   0  0  0  0  0  0  0  0  0  0  0  0
    5.2718    2.3300    0.0201 H   0  0  0  0  0  0  0  0  0  0  0  0
    3.3550    3.8673    0.2546 H   0  0  0  0  0  0  0  0  0  0  0  0
    1.0882    3.0079    0.5380 H   0  0  0  0  0  0  0  0  0  0  0  0
    0.3667   -0.6828    0.5988 H   0  0  0  0  0  0  0  0  0  0  0  0
   -1.8630   -0.8090    0.1406 H   0  0  0  0  0  0  0  0  0  0  0  0
   -1.8818   -0.4688    1.8765 H   0  0  0  0  0  0  0  0  0  0  0  0
   -4.1016   -0.0864    1.0742 H   0  0  0  0  0  0  0  0  0  0  0  0
   -3.4179    1.4751    1.4907 H   0  0  0  0  0  0  0  0  0  0  0  0
   -2.8160    1.7908   -1.0008 H   0  0  0  0  0  0  0  0  0  0  0  0
   -4.5514    3.0740   -0.5755 H   0  0  0  0  0  0  0  0  0  0  0  0
   -8.2127    1.1770    1.0477 H   0  0  0  0  0  0  0  0  0  0  0  0
   -9.4513   -0.9456    1.0665 H   0  0  0  0  0  0  0  0  0  0  0  0
   -8.6220   -2.8773   -0.2569 H   0  0  0  0  0  0  0  0  0  0  0  0
   -6.5405   -2.6894   -1.5338 H   0  0  0  0  0  0  0  0  0  0  0  0
   -4.8194   -1.4956   -2.3240 H   0  0  0  0  0  0  0  0  0  0  0  0
    2.5886   -1.0264    0.3398 H   0  0  0  0  0  0  0  0  0  0  0  0
  1  2  1  0
  2  3  1  0
  3  4  1  0
  4  5  2  0
  5  6  1  0
  6  7  1  0
  7  8  1  0
  8  9  2  0
  9 10  1  0
 10 11  2  0
 11 12  1  0
 12 13  1  0
 13 14  1  0
 14 15  2  0
 14 16  1  0
 16 17  1  0
 17 18  1  0
 18 19  1  0
 19 20  1  0
 20 21  2  0
 20 22  1  0
 22 23  2  0
 23 24  1  0
 24 25  2  0
 25 26  1  0
 26 27  2  0
 27 28  1  0
 28 29  1  0
 29 30  2  0
 12 31  2  0
  7 32  2  0
 32  4  1  0
 31  8  1  0
 29 18  1  0
 27 22  1  0
  1 33  1  0
  1 34  1  0
  1 35  1  0
  3 36  1  0
  3 37  1  0
  6 38  1  0
  9 39  1  0
 10 40  1  0
 11 41  1  0
 13 42  1  0
 16 43  1  0
 16 44  1  0
 17 45  1  0
 17 46  1  0
 18 47  1  6
 19 48  1  0
 23 49  1  0
 24 50  1  0
 25 51  1  0
 26 52  1  0
 28 53  1  0
 31 54  1  0
M  END
$$$$
