
     RDKit          3D

 55 58  0  0  0  0  0  0  0  0999 V2000
    5.1015    5.0899   -1.0153 C   0  0  0  0  0  0  0  0  0  0  0  0
    5.6756    4.0332   -0.0822 C   0  0  0  0  0  0  0  0  0  0  0  0
    4.9798    2.7539   -0.2201 N   0  0  0  0  0  0  0  0  0  0  0  0
    3.8343    2.5387    0.5267 C   0  0  0  0  0  0  0  0  0  0  0  0
    3.3408    3.3201    1.3290 O   0  0  0  0  0  0  0  0  0  0  0  0
    3.2573    1.2009    0.2224 C   0  0  0  0  0  0  0  0  0  0  0  0
    2.1264    0.7881    0.8146 C   0  0  0  0  0  0  0  0  0  0  0  0
    1.4142   -0.4404    0.6487 C   0  0  0  0  0  0  0  0  0  0  0  0
    1.9521   -1.6859    0.4209 C   0  0  0  0  0  0  0  0  0  0  0  0
    0.9025   -2.5708    0.3063 N   0  0  0  0  0  0  0  0  0  0  0  0
    0.9597   -3.9697    0.0448 C   0  0  0  0  0  0  0  0  0  0  0  0
    2.1831   -4.6256   -0.1524 C   0  0  0  0  0  0  0  0  0  0  0  0
    2.2072   -6.0002   -0.4076 C   0  0  0  0  0  0  0  0  0  0  0  0
    1.0185   -6.7256   -0.4678 C   0  0  0  0  0  0  0  0  0  0  0  0
   -0.2007   -6.0804   -0.2743 C   0  0  0  0  0  0  0  0  0  0  0  0
   -0.2330   -4.7077   -0.0192 C   0  0  0  0  0  0  0  0  0  0  0  0
   -0.2879   -1.9464    0.4829 N   0  0  0  0  0  0  0  0  0  0  0  0
    0.0098   -0.6604    0.7112 C   0  0  0  0  0  0  0  0  0  0  0  0
   -1.0619    0.3008    0.9481 C   0  0  0  0  0  0  0  0  0  0  0  0
   -1.1118    1.0411    2.1382 C   0  0  0  0  0  0  0  0  0  0  0  0
   -2.1431    1.9577    2.3608 C   0  0  0  0  0  0  0  0  0  0  0  0
   -3.1390    2.1316    1.4015 C   0  0  0  0  0  0  0  0  0  0  0  0
   -3.1008    1.3771    0.2250 C   0  0  0  0  0  0  0  0  0  0  0  0
   -4.3759    1.6084   -0.9867 S   0  0  0  0  0  6  0  0  0  0  0  0
   -4.6391    3.0301   -1.0642 O   0  0  0  0  0  0  0  0  0  0  0  0
   -4.0354    0.8484   -2.1712 O   0  0  0  0  0  0  0  0  0  0  0  0
   -5.7305    0.8520   -0.2595 N   0  0  0  0  0  0  0  0  0  0  0  0
   -5.5977   -0.6100   -0.0622 C   0  0  0  0  0  0  0  0  0  0  0  0
   -7.0045    1.1917   -0.9339 C   0  0  0  0  0  0  0  0  0  0  0  0
   -2.0656    0.4694   -0.0126 C   0  0  0  0  0  0  0  0  0  0  0  0
    4.2131    0.4091   -0.9620 S   0  0  0  0  0  0  0  0  0  0  0  0
    5.3429    1.7509   -1.0942 C   0  0  0  0  0  0  0  0  0  0  0  0
    6.6354    1.7155   -2.1480 S   0  0  0  0  0  0  0  0  0  0  0  0
    4.0409    5.2648   -0.8071 H   0  0  0  0  0  0  0  0  0  0  0  0
    5.6347    6.0372   -0.8892 H   0  0  0  0  0  0  0  0  0  0  0  0
    5.1884    4.7853   -2.0629 H   0  0  0  0  0  0  0  0  0  0  0  0
    5.5806    4.3794    0.9535 H   0  0  0  0  0  0  0  0  0  0  0  0
    6.7438    3.9034   -0.2802 H   0  0  0  0  0  0  0  0  0  0  0  0
    1.6596    1.4976    1.4984 H   0  0  0  0  0  0  0  0  0  0  0  0
    2.9758   -2.0118    0.3306 H   0  0  0  0  0  0  0  0  0  0  0  0
    3.1337   -4.1031   -0.1192 H   0  0  0  0  0  0  0  0  0  0  0  0
    3.1572   -6.5065   -0.5617 H   0  0  0  0  0  0  0  0  0  0  0  0
    1.0422   -7.7940   -0.6674 H   0  0  0  0  0  0  0  0  0  0  0  0
   -1.1290   -6.6439   -0.3225 H   0  0  0  0  0  0  0  0  0  0  0  0
   -1.1981   -4.2261    0.1278 H   0  0  0  0  0  0  0  0  0  0  0  0
   -0.3556    0.8999    2.9074 H   0  0  0  0  0  0  0  0  0  0  0  0
   -2.1713    2.5313    3.2843 H   0  0  0  0  0  0  0  0  0  0  0  0
   -3.9426    2.8450    1.5730 H   0  0  0  0  0  0  0  0  0  0  0  0
   -5.5258   -1.1341   -1.0198 H   0  0  0  0  0  0  0  0  0  0  0  0
   -4.7263   -0.8458    0.5533 H   0  0  0  0  0  0  0  0  0  0  0  0
   -6.4737   -0.9907    0.4737 H   0  0  0  0  0  0  0  0  0  0  0  0
   -7.0164    0.8182   -1.9623 H   0  0  0  0  0  0  0  0  0  0  0  0
   -7.8443    0.7455   -0.3913 H   0  0  0  0  0  0  0  0  0  0  0  0
   -7.1633    2.2739   -0.9330 H   0  0  0  0  0  0  0  0  0  0  0  0
   -2.0380   -0.1114   -0.9330 H   0  0  0  0  0  0  0  0  0  0  0  0
  1  2  1  0
  2  3  1  0
  3  4  1  0
  4  5  2  0
  4  6  1  0
  6  7  2  0
  7  8  1  0
  8  9  2  0
  9 10  1  0
 10 11  1  0
 11 12  2  0
 12 13  1  0
 13 14  2  0
 14 15  1  0
 15 16  2  0
 10 17  1  0
 17 18  2  0
 18 19  1  0
 19 20  2  0
 20 21  1  0
 21 22  2  0
 22 23  1  0
 23 24  1  0
 24 25  2  0
 24 26  2  0
 24 27  1  0
 27 28  1  0
 27 29  1  0
 23 30  2  0
  6 31  1  0
 31 32  1  0
 32 33  2  0
 32  3  1  0
 18  8  1  0
 30 19  1  0
 16 11  1  0
  1 34  1  0
  1 35  1  0
  1 36  1  0
  2 37  1  0
  2 38  1  0
  7 39  1  0
  9 40  1  0
 12 41  1  0
 13 42  1  0
 14 43  1  0
 15 44  1  0
 16 45  1  0
 20 46  1  0
 21 47  1  0
 22 48  1  0
 28 49  1  0
 28 50  1  0
 28 51  1  0
 29 52  1  0
 29 53  1  0
 29 54  1  0
 30 55  1  0
M  END
$$$$
