
     RDKit          3D

 35 37  0  0  0  0  0  0  0  0999 V2000
   -3.6774    2.5949    1.2725 C   0  0  0  0  0  0  0  0  0  0  0  0
   -2.9373    1.5963    0.4818 C   0  0  0  0  0  0  0  0  0  0  0  0
   -2.2914    0.4229    0.7796 C   0  0  0  0  0  0  0  0  0  0  0  0
   -1.7820   -0.0231   -0.4652 C   0  0  0  0  0  0  0  0  0  0  0  0
   -0.9648   -1.2359   -0.7704 C   0  0  0  0  0  0  0  0  0  0  0  0
   -1.7805   -2.5310   -0.6371 C   0  0  0  0  0  0  0  0  0  0  0  0
   -0.7599   -3.5450   -0.1413 C   0  0  0  0  0  0  0  0  0  0  0  0
    0.1058   -2.7201    0.7964 C   0  0  0  0  0  0  0  0  0  0  0  0
    0.1418   -1.4021    0.1828 N   0  0  0  0  0  0  0  0  0  0  0  0
    1.2372   -0.5727    0.3717 C   0  0  0  0  0  0  0  0  0  0  0  0
    2.1230   -0.8884    1.1687 O   0  0  0  0  0  0  0  0  0  0  0  0
    1.2855    0.7174   -0.4291 C   0  0  0  0  0  0  0  0  0  0  0  0
    2.6009    1.3423   -0.4181 N   0  0  0  0  0  0  0  0  0  0  0  0
    3.7547    0.8358   -0.9528 C   0  0  0  0  0  0  0  0  0  0  0  0
    4.7072    1.8089   -0.7837 C   0  0  0  0  0  0  0  0  0  0  0  0
    6.3404    1.7623   -1.2161 Cl  0  0  0  0  0  0  0  0  0  0  0  0
    4.0302    2.8792   -0.1755 C   0  0  0  0  0  0  0  0  0  0  0  0
    2.7347    2.6138    0.0248 N   0  0  0  0  0  0  0  0  0  0  0  0
   -2.1034    0.8272   -1.4494 N   0  0  0  0  0  0  0  0  0  0  0  0
   -2.8302    1.8403   -0.8510 O   0  0  0  0  0  0  0  0  0  0  0  0
   -3.7158    2.3096    2.3283 H   0  0  0  0  0  0  0  0  0  0  0  0
   -4.7048    2.6885    0.9075 H   0  0  0  0  0  0  0  0  0  0  0  0
   -3.1947    3.5744    1.2018 H   0  0  0  0  0  0  0  0  0  0  0  0
   -2.1876   -0.0400    1.7499 H   0  0  0  0  0  0  0  0  0  0  0  0
   -0.5210   -1.1736   -1.7717 H   0  0  0  0  0  0  0  0  0  0  0  0
   -2.2415   -2.8280   -1.5845 H   0  0  0  0  0  0  0  0  0  0  0  0
   -2.5836   -2.4335    0.1044 H   0  0  0  0  0  0  0  0  0  0  0  0
   -0.1611   -3.9097   -0.9847 H   0  0  0  0  0  0  0  0  0  0  0  0
   -1.2176   -4.4056    0.3539 H   0  0  0  0  0  0  0  0  0  0  0  0
   -0.3629   -2.6140    1.7810 H   0  0  0  0  0  0  0  0  0  0  0  0
    1.1064   -3.1445    0.9199 H   0  0  0  0  0  0  0  0  0  0  0  0
    0.5776    1.4335   -0.0018 H   0  0  0  0  0  0  0  0  0  0  0  0
    1.0476    0.5342   -1.4807 H   0  0  0  0  0  0  0  0  0  0  0  0
    3.8031   -0.1572   -1.3754 H   0  0  0  0  0  0  0  0  0  0  0  0
    4.4213    3.8432    0.1215 H   0  0  0  0  0  0  0  0  0  0  0  0
  1  2  1  0
  2  3  2  0
  3  4  1  0
  4  5  1  0
  5  6  1  0
  6  7  1  0
  7  8  1  0
  8  9  1  0
  9 10  1  0
 10 11  2  0
 10 12  1  0
 12 13  1  0
 13 14  1  0
 14 15  2  0
 15 16  1  0
 15 17  1  0
 17 18  2  0
  4 19  2  0
 19 20  1  0
 20  2  1  0
  9  5  1  0
 18 13  1  0
  1 21  1  0
  1 22  1  0
  1 23  1  0
  3 24  1  0
  5 25  1  0
  6 26  1  0
  6 27  1  0
  7 28  1  0
  7 29  1  0
  8 30  1  0
  8 31  1  0
 12 32  1  0
 12 33  1  0
 14 34  1  0
 17 35  1  0
M  END
$$$$
