
     RDKit          3D

 47 49  0  0  0  0  0  0  0  0999 V2000
    6.3715   -0.3861   -0.3893 C   0  0  0  0  0  0  0  0  0  0  0  0
    4.9618    0.1227   -0.3193 C   0  0  0  0  0  0  0  0  0  0  0  0
    4.6536    1.4198   -0.7280 C   0  0  0  0  0  0  0  0  0  0  0  0
    3.3453    1.8912   -0.6324 C   0  0  0  0  0  0  0  0  0  0  0  0
    2.3211    1.0797   -0.1150 C   0  0  0  0  0  0  0  0  0  0  0  0
    0.9296    1.6474   -0.0410 C   0  0  0  0  0  0  0  0  0  0  0  0
    2.6274   -0.2277    0.3197 C   0  0  0  0  0  0  0  0  0  0  0  0
    1.5902   -1.0296    0.8393 N   0  0  0  0  0  0  0  0  0  0  0  0
    1.6527   -2.3111    1.3604 C   0  0  0  0  0  0  0  0  0  0  0  0
    2.6735   -2.9633    1.5672 O   0  0  0  0  0  0  0  0  0  0  0  0
    0.2893   -2.8295    1.8309 C   0  0  0  0  0  0  0  0  0  0  0  0
   -0.8249   -2.2132    1.1064 N   0  0  0  0  0  0  0  0  0  0  0  0
   -1.2501   -0.9766    1.5558 N   0  0  0  0  0  0  0  0  0  0  0  0
   -2.2396   -0.4221    0.9289 C   0  0  0  0  0  0  0  0  0  0  0  0
   -2.9266   -1.0041   -0.2443 C   0  0  0  0  0  0  0  0  0  0  0  0
   -2.4732   -2.1801   -0.6824 C   0  0  0  0  0  0  0  0  0  0  0  0
   -1.3562   -2.8650    0.0005 C   0  0  0  0  0  0  0  0  0  0  0  0
   -0.9662   -3.9435   -0.4358 O   0  0  0  0  0  0  0  0  0  0  0  0
   -4.0155   -0.1860   -0.8596 C   0  0  0  0  0  0  0  0  0  0  0  0
   -3.5371    1.2624   -1.0308 C   0  0  0  0  0  0  0  0  0  0  0  0
   -4.6247    2.1231   -1.6727 C   0  0  0  0  0  0  0  0  0  0  0  0
   -3.0422    1.8924    0.2896 C   0  0  0  0  0  0  0  0  0  0  0  0
   -2.7703    0.9045    1.4242 C   0  0  0  0  0  0  0  0  0  0  0  0
    3.9463   -0.6868    0.2126 C   0  0  0  0  0  0  0  0  0  0  0  0
    6.9304    0.1149   -1.1867 H   0  0  0  0  0  0  0  0  0  0  0  0
    6.8809   -0.2087    0.5628 H   0  0  0  0  0  0  0  0  0  0  0  0
    6.3879   -1.4592   -0.6072 H   0  0  0  0  0  0  0  0  0  0  0  0
    5.4285    2.0710   -1.1254 H   0  0  0  0  0  0  0  0  0  0  0  0
    3.1305    2.9046   -0.9648 H   0  0  0  0  0  0  0  0  0  0  0  0
    0.8896    2.6736   -0.4218 H   0  0  0  0  0  0  0  0  0  0  0  0
    0.5826    1.6709    0.9969 H   0  0  0  0  0  0  0  0  0  0  0  0
    0.2423    1.0482   -0.6471 H   0  0  0  0  0  0  0  0  0  0  0  0
    0.6552   -0.6304    0.8724 H   0  0  0  0  0  0  0  0  0  0  0  0
    0.1797   -2.6085    2.8980 H   0  0  0  0  0  0  0  0  0  0  0  0
    0.2669   -3.9149    1.6894 H   0  0  0  0  0  0  0  0  0  0  0  0
   -2.8854   -2.6862   -1.5463 H   0  0  0  0  0  0  0  0  0  0  0  0
   -4.3041   -0.5989   -1.8340 H   0  0  0  0  0  0  0  0  0  0  0  0
   -4.9063   -0.2224   -0.2201 H   0  0  0  0  0  0  0  0  0  0  0  0
   -2.6850    1.2517   -1.7262 H   0  0  0  0  0  0  0  0  0  0  0  0
   -5.5169    2.1721   -1.0394 H   0  0  0  0  0  0  0  0  0  0  0  0
   -4.9214    1.7139   -2.6442 H   0  0  0  0  0  0  0  0  0  0  0  0
   -4.2655    3.1448   -1.8352 H   0  0  0  0  0  0  0  0  0  0  0  0
   -3.7540    2.6431    0.6554 H   0  0  0  0  0  0  0  0  0  0  0  0
   -2.1191    2.4463    0.0739 H   0  0  0  0  0  0  0  0  0  0  0  0
   -3.6998    0.6991    1.9696 H   0  0  0  0  0  0  0  0  0  0  0  0
   -2.0682    1.3451    2.1408 H   0  0  0  0  0  0  0  0  0  0  0  0
    4.2156   -1.6881    0.5359 H   0  0  0  0  0  0  0  0  0  0  0  0
  1  2  1  0
  2  3  2  0
  3  4  1  0
  4  5  2  0
  5  6  1  0
  5  7  1  0
  7  8  1  0
  8  9  1  0
  9 10  2  0
  9 11  1  0
 11 12  1  0
 12 13  1  0
 13 14  2  0
 14 15  1  0
 15 16  2  0
 16 17  1  0
 17 18  2  0
 15 19  1  0
 19 20  1  0
 20 21  1  0
 20 22  1  0
 22 23  1  0
  7 24  2  0
 24  2  1  0
 17 12  1  0
 23 14  1  0
  1 25  1  0
  1 26  1  0
  1 27  1  0
  3 28  1  0
  4 29  1  0
  6 30  1  0
  6 31  1  0
  6 32  1  0
  8 33  1  0
 11 34  1  0
 11 35  1  0
 16 36  1  0
 19 37  1  0
 19 38  1  0
 20 39  1  0
 21 40  1  0
 21 41  1  0
 21 42  1  0
 22 43  1  0
 22 44  1  0
 23 45  1  0
 23 46  1  0
 24 47  1  0
M  END
$$$$
