
     RDKit          3D

 32 33  0  0  0  0  0  0  0  0999 V2000
   -5.8947   -0.5822    0.7458 C   0  0  0  0  0  0  0  0  0  0  0  0
   -4.4873   -0.1885    0.4043 C   0  0  0  0  0  0  0  0  0  0  0  0
   -3.4395   -0.4627    1.2926 C   0  0  0  0  0  0  0  0  0  0  0  0
   -2.1328   -0.0671    0.9927 C   0  0  0  0  0  0  0  0  0  0  0  0
   -1.8641    0.6102   -0.2031 C   0  0  0  0  0  0  0  0  0  0  0  0
   -0.4864    1.0508   -0.5630 C   0  0  0  0  0  0  0  0  0  0  0  0
   -0.3531    2.1070   -1.1688 O   0  0  0  0  0  0  0  0  0  0  0  0
    0.5177    0.1724   -0.1953 N   0  0  0  0  0  0  0  0  0  0  0  0
    1.9079    0.3403   -0.3683 C   0  0  0  0  0  0  0  0  0  0  0  0
    2.4973    1.4992   -0.8773 C   0  0  0  0  0  0  0  0  0  0  0  0
    3.8863    1.5915   -1.0136 C   0  0  0  0  0  0  0  0  0  0  0  0
    4.7020    0.5252   -0.6388 C   0  0  0  0  0  0  0  0  0  0  0  0
    4.1253   -0.6389   -0.1238 C   0  0  0  0  0  0  0  0  0  0  0  0
    4.9409   -1.8034    0.2944 C   0  0  0  0  0  0  0  0  0  0  0  0
    4.5082   -2.8425    0.7581 O   0  0  0  0  0  0  0  0  0  0  0  0
    6.2592   -1.6130    0.1134 O   0  0  0  0  0  0  0  0  0  0  0  0
    2.7318   -0.7268    0.0105 C   0  0  0  0  0  0  0  0  0  0  0  0
   -2.9132    0.9162   -1.0766 C   0  0  0  0  0  0  0  0  0  0  0  0
   -4.2173    0.5181   -0.7740 C   0  0  0  0  0  0  0  0  0  0  0  0
   -6.3814    0.2201    1.3088 H   0  0  0  0  0  0  0  0  0  0  0  0
   -5.9088   -1.4968    1.3478 H   0  0  0  0  0  0  0  0  0  0  0  0
   -6.4752   -0.7817   -0.1611 H   0  0  0  0  0  0  0  0  0  0  0  0
   -3.6384   -0.9779    2.2303 H   0  0  0  0  0  0  0  0  0  0  0  0
   -1.3464   -0.2647    1.7159 H   0  0  0  0  0  0  0  0  0  0  0  0
    0.2265   -0.7219    0.1784 H   0  0  0  0  0  0  0  0  0  0  0  0
    1.9017    2.3566   -1.1768 H   0  0  0  0  0  0  0  0  0  0  0  0
    4.3279    2.5015   -1.4134 H   0  0  0  0  0  0  0  0  0  0  0  0
    5.7797    0.6133   -0.7510 H   0  0  0  0  0  0  0  0  0  0  0  0
    6.6655   -2.4484    0.4256 H   0  0  0  0  0  0  0  0  0  0  0  0
    2.2989   -1.6404    0.4127 H   0  0  0  0  0  0  0  0  0  0  0  0
   -2.7166    1.4667   -1.9947 H   0  0  0  0  0  0  0  0  0  0  0  0
   -5.0214    0.7676   -1.4633 H   0  0  0  0  0  0  0  0  0  0  0  0
  1  2  1  0
  2  3  2  0
  3  4  1  0
  4  5  2  0
  5  6  1  0
  6  7  2  0
  6  8  1  0
  8  9  1  0
  9 10  2  0
 10 11  1  0
 11 12  2  0
 12 13  1  0
 13 14  1  0
 14 15  2  0
 14 16  1  0
 13 17  2  0
  5 18  1  0
 18 19  2  0
 19  2  1  0
 17  9  1  0
  1 20  1  0
  1 21  1  0
  1 22  1  0
  3 23  1  0
  4 24  1  0
  8 25  1  0
 10 26  1  0
 11 27  1  0
 12 28  1  0
 16 29  1  0
 17 30  1  0
 18 31  1  0
 19 32  1  0
M  END
$$$$
