
     RDKit          3D

 38 40  0  0  0  0  0  0  0  0999 V2000
    3.5601    0.8481   -1.9345 C   0  0  0  0  0  0  0  0  0  0  0  0
    3.1587   -0.4393   -1.2810 C   0  0  0  0  0  0  0  0  0  0  0  0
    4.0627   -1.1540   -0.5777 C   0  0  0  0  0  0  0  0  0  0  0  0
    3.6884   -2.4339    0.0918 C   0  0  0  0  0  0  0  0  0  0  0  0
    4.5255   -3.0678    0.7236 O   0  0  0  0  0  0  0  0  0  0  0  0
    2.3916   -2.8488   -0.0349 N   0  0  0  0  0  0  0  0  0  0  0  0
    1.4816   -2.1156   -0.7499 C   0  0  0  0  0  0  0  0  0  0  0  0
    0.2151   -2.3866   -0.9461 N   0  0  0  0  0  0  0  0  0  0  0  0
   -0.3012   -1.3763   -1.7161 N   0  0  0  0  0  0  0  0  0  0  0  0
    0.6678   -0.5211   -1.9684 C   0  0  0  0  0  0  0  0  0  0  0  0
    0.4402    0.9384   -2.8714 S   0  0  0  0  0  0  0  0  0  0  0  0
   -1.0129    1.5989   -1.9861 C   0  0  0  0  0  0  0  0  0  0  0  0
   -0.6850    1.7965   -0.5055 C   0  0  0  0  0  0  0  0  0  0  0  0
    0.3479    2.3854   -0.1694 O   0  0  0  0  0  0  0  0  0  0  0  0
   -1.5674    1.2841    0.4395 N   0  0  0  0  0  0  0  0  0  0  0  0
   -2.8363    0.6301    0.1118 C   0  0  0  0  0  0  0  0  0  0  0  0
   -3.7495    0.4780    1.3231 C   0  0  0  0  0  0  0  0  0  0  0  0
   -3.0639   -0.2693    2.4652 C   0  0  0  0  0  0  0  0  0  0  0  0
   -1.5661    0.0260    2.5582 C   0  0  0  0  0  0  0  0  0  0  0  0
   -1.1875    1.3234    1.8526 C   0  0  0  0  0  0  0  0  0  0  0  0
    1.8452   -0.9309   -1.3732 N   0  0  0  0  0  0  0  0  0  0  0  0
    4.6199    1.0738   -1.7672 H   0  0  0  0  0  0  0  0  0  0  0  0
    2.9918    1.6889   -1.5256 H   0  0  0  0  0  0  0  0  0  0  0  0
    3.4182    0.7973   -3.0184 H   0  0  0  0  0  0  0  0  0  0  0  0
    5.0954   -0.8482   -0.4524 H   0  0  0  0  0  0  0  0  0  0  0  0
    2.0985   -3.7089    0.4061 H   0  0  0  0  0  0  0  0  0  0  0  0
   -1.8451    0.9181   -2.1628 H   0  0  0  0  0  0  0  0  0  0  0  0
   -1.2781    2.5735   -2.4070 H   0  0  0  0  0  0  0  0  0  0  0  0
   -3.3498    1.2182   -0.6561 H   0  0  0  0  0  0  0  0  0  0  0  0
   -2.6020   -0.3537   -0.3106 H   0  0  0  0  0  0  0  0  0  0  0  0
   -4.0425    1.4752    1.6764 H   0  0  0  0  0  0  0  0  0  0  0  0
   -4.6741   -0.0381    1.0417 H   0  0  0  0  0  0  0  0  0  0  0  0
   -3.5562   -0.0037    3.4084 H   0  0  0  0  0  0  0  0  0  0  0  0
   -3.2046   -1.3499    2.3410 H   0  0  0  0  0  0  0  0  0  0  0  0
   -1.0137   -0.8029    2.0964 H   0  0  0  0  0  0  0  0  0  0  0  0
   -1.2591    0.0601    3.6094 H   0  0  0  0  0  0  0  0  0  0  0  0
   -0.1114    1.4947    1.9606 H   0  0  0  0  0  0  0  0  0  0  0  0
   -1.7022    2.1775    2.3083 H   0  0  0  0  0  0  0  0  0  0  0  0
  1  2  1  0
  2  3  2  0
  3  4  1  0
  4  5  2  0
  4  6  1  0
  6  7  1  0
  7  8  2  0
  8  9  1  0
  9 10  2  0
 10 11  1  0
 11 12  1  0
 12 13  1  0
 13 14  2  0
 13 15  1  0
 15 16  1  0
 16 17  1  0
 17 18  1  0
 18 19  1  0
 19 20  1  0
 10 21  1  0
 21  2  1  0
 21  7  1  0
 20 15  1  0
  1 22  1  0
  1 23  1  0
  1 24  1  0
  3 25  1  0
  6 26  1  0
 12 27  1  0
 12 28  1  0
 16 29  1  0
 16 30  1  0
 17 31  1  0
 17 32  1  0
 18 33  1  0
 18 34  1  0
 19 35  1  0
 19 36  1  0
 20 37  1  0
 20 38  1  0
M  END
$$$$
