
     RDKit          3D

 51 53  0  0  0  0  0  0  0  0999 V2000
    4.2993    3.0127   -2.4161 C   0  0  0  0  0  0  0  0  0  0  0  0
    4.9461    1.6409   -2.3144 C   0  0  0  0  0  0  0  0  0  0  0  0
    4.3855    0.8282   -1.2015 C   0  0  0  0  0  0  0  0  0  0  0  0
    3.4139   -0.1948   -1.2699 C   0  0  0  0  0  0  0  0  0  0  0  0
    3.2567   -0.6102    0.0321 C   0  0  0  0  0  0  0  0  0  0  0  0
    2.4276   -1.6363    0.7338 C   0  0  0  0  0  0  0  0  0  0  0  0
    2.5775   -3.0195    0.0995 C   0  0  0  0  0  0  0  0  0  0  0  0
    1.4203   -3.1435   -0.8883 C   0  0  0  0  0  0  0  0  0  0  0  0
    0.5130   -1.9505   -0.6153 C   0  0  0  0  0  0  0  0  0  0  0  0
    0.9697   -1.4452    0.6754 N   0  0  0  0  0  0  0  0  0  0  0  0
    0.5125   -0.0897    0.9873 C   0  0  0  0  0  0  0  0  0  0  0  0
   -0.9840   -0.0285    1.2232 C   0  0  0  0  0  0  0  0  0  0  0  0
   -1.5246   -0.6686    2.3514 C   0  0  0  0  0  0  0  0  0  0  0  0
   -2.8995   -0.6506    2.6049 C   0  0  0  0  0  0  0  0  0  0  0  0
   -3.7644    0.0234    1.7421 C   0  0  0  0  0  0  0  0  0  0  0  0
   -5.1222    0.1144    1.9142 O   0  0  0  0  0  0  0  0  0  0  0  0
   -5.7140   -0.7810    2.8431 C   0  0  0  0  0  0  0  0  0  0  0  0
   -3.2297    0.6875    0.6252 C   0  0  0  0  0  0  0  0  0  0  0  0
   -4.0835    1.3637   -0.2160 O   0  0  0  0  0  0  0  0  0  0  0  0
   -4.1768    2.7282    0.1914 C   0  0  0  0  0  0  0  0  0  0  0  0
   -1.8543    0.6265    0.3380 C   0  0  0  0  0  0  0  0  0  0  0  0
   -1.2946    1.2355   -0.7589 O   0  0  0  0  0  0  0  0  0  0  0  0
   -1.8907    0.8251   -1.9898 C   0  0  0  0  0  0  0  0  0  0  0  0
    4.0900    0.1185    0.8269 O   0  0  0  0  0  0  0  0  0  0  0  0
    4.8019    1.0175    0.0555 N   0  0  0  0  0  0  0  0  0  0  0  0
    3.2168    2.9301   -2.5640 H   0  0  0  0  0  0  0  0  0  0  0  0
    4.4700    3.6029   -1.5103 H   0  0  0  0  0  0  0  0  0  0  0  0
    4.7156    3.5648   -3.2635 H   0  0  0  0  0  0  0  0  0  0  0  0
    6.0283    1.7555   -2.1797 H   0  0  0  0  0  0  0  0  0  0  0  0
    4.8048    1.1086   -3.2620 H   0  0  0  0  0  0  0  0  0  0  0  0
    2.9097   -0.5730   -2.1472 H   0  0  0  0  0  0  0  0  0  0  0  0
    2.7448   -1.6908    1.7835 H   0  0  0  0  0  0  0  0  0  0  0  0
    3.5440   -3.1849   -0.3850 H   0  0  0  0  0  0  0  0  0  0  0  0
    2.4607   -3.7914    0.8698 H   0  0  0  0  0  0  0  0  0  0  0  0
    0.8918   -4.0894   -0.7285 H   0  0  0  0  0  0  0  0  0  0  0  0
    1.7782   -3.1318   -1.9228 H   0  0  0  0  0  0  0  0  0  0  0  0
    0.6244   -1.2082   -1.4140 H   0  0  0  0  0  0  0  0  0  0  0  0
   -0.5366   -2.2605   -0.5890 H   0  0  0  0  0  0  0  0  0  0  0  0
    0.8176    0.6263    0.2165 H   0  0  0  0  0  0  0  0  0  0  0  0
    0.9905    0.2536    1.9150 H   0  0  0  0  0  0  0  0  0  0  0  0
   -0.8640   -1.1983    3.0357 H   0  0  0  0  0  0  0  0  0  0  0  0
   -3.2585   -1.1631    3.4906 H   0  0  0  0  0  0  0  0  0  0  0  0
   -5.4393   -1.8198    2.6320 H   0  0  0  0  0  0  0  0  0  0  0  0
   -6.8000   -0.6973    2.7403 H   0  0  0  0  0  0  0  0  0  0  0  0
   -5.4540   -0.5056    3.8694 H   0  0  0  0  0  0  0  0  0  0  0  0
   -3.2137    3.2385    0.0900 H   0  0  0  0  0  0  0  0  0  0  0  0
   -4.5480    2.8186    1.2172 H   0  0  0  0  0  0  0  0  0  0  0  0
   -4.8907    3.2265   -0.4710 H   0  0  0  0  0  0  0  0  0  0  0  0
   -1.1096    0.8396   -2.7558 H   0  0  0  0  0  0  0  0  0  0  0  0
   -2.6623    1.5382   -2.2920 H   0  0  0  0  0  0  0  0  0  0  0  0
   -2.2964   -0.1923   -1.9493 H   0  0  0  0  0  0  0  0  0  0  0  0
  1  2  1  0
  2  3  1  0
  3  4  1  0
  4  5  2  0
  5  6  1  0
  6  7  1  0
  7  8  1  0
  8  9  1  0
  9 10  1  0
 10 11  1  0
 11 12  1  0
 12 13  2  0
 13 14  1  0
 14 15  2  0
 15 16  1  0
 16 17  1  0
 15 18  1  0
 18 19  1  0
 19 20  1  0
 18 21  2  0
 21 22  1  0
 22 23  1  0
  5 24  1  0
 24 25  1  0
 25  3  2  0
 10  6  1  0
 21 12  1  0
  1 26  1  0
  1 27  1  0
  1 28  1  0
  2 29  1  0
  2 30  1  0
  4 31  1  0
  6 32  1  0
  7 33  1  0
  7 34  1  0
  8 35  1  0
  8 36  1  0
  9 37  1  0
  9 38  1  0
 11 39  1  0
 11 40  1  0
 13 41  1  0
 14 42  1  0
 17 43  1  0
 17 44  1  0
 17 45  1  0
 20 46  1  0
 20 47  1  0
 20 48  1  0
 23 49  1  0
 23 50  1  0
 23 51  1  0
M  END
$$$$
