
     RDKit          3D

 68 71  0  0  0  0  0  0  0  0999 V2000
   -4.3237   -1.1536    4.7623 C   0  0  0  0  0  0  0  0  0  0  0  0
   -5.0995   -1.0646    3.4699 C   0  0  0  0  0  0  0  0  0  0  0  0
   -6.3097   -1.2550    3.4546 O   0  0  0  0  0  0  0  0  0  0  0  0
   -4.2908   -0.7542    2.3996 N   0  0  0  0  0  0  0  0  0  0  0  0
   -4.6848   -0.4986    1.0922 C   0  0  0  0  0  0  0  0  0  0  0  0
   -5.9456   -0.2864    0.4822 C   0  0  0  0  0  0  0  0  0  0  0  0
   -7.3101   -0.2422    1.0629 C   0  0  0  0  0  0  0  0  0  0  0  0
   -5.8263   -0.0420   -0.8230 N   0  0  0  0  0  0  0  0  0  0  0  0
   -4.4934   -0.0803   -1.0956 N   0  0  0  0  0  0  0  0  0  0  0  0
   -4.0700    0.1552   -2.4453 C   0  0  0  0  0  0  0  0  0  0  0  0
   -5.0215    0.5817   -3.3881 C   0  0  0  0  0  0  0  0  0  0  0  0
   -4.6534    0.8383   -4.7119 C   0  0  0  0  0  0  0  0  0  0  0  0
   -3.3353    0.6545   -5.1162 C   0  0  0  0  0  0  0  0  0  0  0  0
   -2.3869    0.2111   -4.1979 C   0  0  0  0  0  0  0  0  0  0  0  0
   -2.7511   -0.0362   -2.8701 C   0  0  0  0  0  0  0  0  0  0  0  0
   -3.7541   -0.3468    0.0693 C   0  0  0  0  0  0  0  0  0  0  0  0
   -2.3757   -0.3855    0.1231 N   0  0  0  0  0  0  0  0  0  0  0  0
   -1.7016    0.7790    0.7045 C   0  0  0  0  0  0  0  0  0  0  0  0
   -0.3189    0.9265    0.0722 C   0  0  0  0  0  0  0  0  0  0  0  0
    0.3819   -0.4187   -0.1833 C   0  0  0  0  0  0  0  0  0  0  0  0
    1.8804   -0.3045    0.0821 C   0  0  0  0  0  0  0  0  0  0  0  0
    2.4550   -0.9534    0.9467 O   0  0  0  0  0  0  0  0  0  0  0  0
    2.5192    0.5834   -0.7554 N   0  0  0  0  0  0  0  0  0  0  0  0
    3.9390    0.8668   -0.6604 C   0  0  0  0  0  0  0  0  0  0  0  0
    4.7911   -0.2552   -1.2503 C   0  0  0  0  0  0  0  0  0  0  0  0
    6.2585    0.1405   -1.4198 C   0  0  0  0  0  0  0  0  0  0  0  0
    6.9365    0.4561   -0.1761 N   0  0  0  0  0  0  0  0  0  0  0  0
    7.2880   -0.5512    0.7929 C   0  0  0  0  0  0  0  0  0  0  0  0
    8.1568    0.2132    1.7728 C   0  0  0  0  0  0  0  0  0  0  0  0
    7.5586    1.6144    1.7643 C   0  0  0  0  0  0  0  0  0  0  0  0
    6.9946    1.7342    0.3683 C   0  0  0  0  0  0  0  0  0  0  0  0
    6.6052    2.7651   -0.1576 O   0  0  0  0  0  0  0  0  0  0  0  0
   -0.2465   -1.5456    0.6420 C   0  0  0  0  0  0  0  0  0  0  0  0
   -1.7436   -1.6914    0.3650 C   0  0  0  0  0  0  0  0  0  0  0  0
   -3.3872   -1.6986    4.6182 H   0  0  0  0  0  0  0  0  0  0  0  0
   -4.9184   -1.6894    5.5066 H   0  0  0  0  0  0  0  0  0  0  0  0
   -4.1147   -0.1452    5.1299 H   0  0  0  0  0  0  0  0  0  0  0  0
   -3.2885   -0.7109    2.5517 H   0  0  0  0  0  0  0  0  0  0  0  0
   -7.3348    0.4176    1.9351 H   0  0  0  0  0  0  0  0  0  0  0  0
   -8.0369    0.1600    0.3450 H   0  0  0  0  0  0  0  0  0  0  0  0
   -7.6478   -1.2444    1.3411 H   0  0  0  0  0  0  0  0  0  0  0  0
   -6.0604    0.7421   -3.1008 H   0  0  0  0  0  0  0  0  0  0  0  0
   -5.3992    1.1805   -5.4253 H   0  0  0  0  0  0  0  0  0  0  0  0
   -3.0485    0.8462   -6.1469 H   0  0  0  0  0  0  0  0  0  0  0  0
   -1.3616    0.0424   -4.5177 H   0  0  0  0  0  0  0  0  0  0  0  0
   -1.9842   -0.4034   -2.2027 H   0  0  0  0  0  0  0  0  0  0  0  0
   -2.2727    1.7007    0.5202 H   0  0  0  0  0  0  0  0  0  0  0  0
   -1.6121    0.6669    1.7936 H   0  0  0  0  0  0  0  0  0  0  0  0
    0.2857    1.5864    0.7067 H   0  0  0  0  0  0  0  0  0  0  0  0
   -0.4198    1.4453   -0.8903 H   0  0  0  0  0  0  0  0  0  0  0  0
    0.2706   -0.6842   -1.2450 H   0  0  0  0  0  0  0  0  0  0  0  0
    1.9917    1.0509   -1.4816 H   0  0  0  0  0  0  0  0  0  0  0  0
    4.1061    1.8059   -1.1978 H   0  0  0  0  0  0  0  0  0  0  0  0
    4.1837    1.0237    0.3958 H   0  0  0  0  0  0  0  0  0  0  0  0
    4.7152   -1.1503   -0.6202 H   0  0  0  0  0  0  0  0  0  0  0  0
    4.3948   -0.5325   -2.2348 H   0  0  0  0  0  0  0  0  0  0  0  0
    6.8103   -0.6785   -1.8957 H   0  0  0  0  0  0  0  0  0  0  0  0
    6.3287    1.0118   -2.0834 H   0  0  0  0  0  0  0  0  0  0  0  0
    7.8246   -1.3766    0.3151 H   0  0  0  0  0  0  0  0  0  0  0  0
    6.3729   -0.9195    1.2694 H   0  0  0  0  0  0  0  0  0  0  0  0
    8.1724   -0.2345    2.7709 H   0  0  0  0  0  0  0  0  0  0  0  0
    9.1892    0.2527    1.4025 H   0  0  0  0  0  0  0  0  0  0  0  0
    8.3156    2.3783    1.9524 H   0  0  0  0  0  0  0  0  0  0  0  0
    6.7413    1.7033    2.4854 H   0  0  0  0  0  0  0  0  0  0  0  0
    0.2514   -2.4981    0.4301 H   0  0  0  0  0  0  0  0  0  0  0  0
   -0.0920   -1.3563    1.7108 H   0  0  0  0  0  0  0  0  0  0  0  0
   -2.2114   -2.2167    1.2087 H   0  0  0  0  0  0  0  0  0  0  0  0
   -1.8865   -2.3210   -0.5230 H   0  0  0  0  0  0  0  0  0  0  0  0
  1  2  1  0
  2  3  2  0
  2  4  1  0
  4  5  1  0
  5  6  1  0
  6  7  1  0
  6  8  2  0
  8  9  1  0
  9 10  1  0
 10 11  2  0
 11 12  1  0
 12 13  2  0
 13 14  1  0
 14 15  2  0
  9 16  1  0
 16 17  1  0
 17 18  1  0
 18 19  1  0
 19 20  1  0
 20 21  1  0
 21 22  2  0
 21 23  1  0
 23 24  1  0
 24 25  1  0
 25 26  1  0
 26 27  1  0
 27 28  1  0
 28 29  1  0
 29 30  1  0
 30 31  1  0
 31 32  2  0
 20 33  1  0
 33 34  1  0
 16  5  2  0
 34 17  1  0
 15 10  1  0
 31 27  1  0
  1 35  1  0
  1 36  1  0
  1 37  1  0
  4 38  1  0
  7 39  1  0
  7 40  1  0
  7 41  1  0
 11 42  1  0
 12 43  1  0
 13 44  1  0
 14 45  1  0
 15 46  1  0
 18 47  1  0
 18 48  1  0
 19 49  1  0
 19 50  1  0
 20 51  1  0
 23 52  1  0
 24 53  1  0
 24 54  1  0
 25 55  1  0
 25 56  1  0
 26 57  1  0
 26 58  1  0
 28 59  1  0
 28 60  1  0
 29 61  1  0
 29 62  1  0
 30 63  1  0
 30 64  1  0
 33 65  1  0
 33 66  1  0
 34 67  1  0
 34 68  1  0
M  END
$$$$
