
     RDKit          3D

 39 39  0  0  0  0  0  0  0  0999 V2000
   -4.8772   -1.5534    1.0945 C   0  0  0  0  0  0  0  0  0  0  0  0
   -4.1153   -0.2840    1.3106 C   0  0  0  0  0  0  0  0  0  0  0  0
   -3.4755    0.1907    0.0683 N   0  0  0  0  0  0  0  0  0  0  0  0
   -4.2379    0.6657   -1.0152 C   0  0  0  0  0  0  0  0  0  0  0  0
   -3.4505    1.0888   -2.1887 C   0  0  0  0  0  0  0  0  0  0  0  0
   -1.8377    0.2618   -1.8729 S   0  0  0  0  0  0  0  0  0  0  0  0
   -2.0687    0.1844   -0.0732 C   0  0  0  0  0  0  0  0  0  0  0  0
   -1.1214    0.1355    0.8174 C   0  0  0  0  0  0  0  0  0  0  0  0
    0.2844    0.1432    0.3708 C   0  0  0  0  0  0  0  0  0  0  0  0
    1.2750    0.0966    1.2053 C   0  0  0  0  0  0  0  0  0  0  0  0
    2.6891    0.0969    0.9817 C   0  0  0  0  0  0  0  0  0  0  0  0
    3.4898    0.1693    0.0171 N   0  0  0  0  0  4  0  0  0  0  0  0
    3.0653    0.3083   -1.3956 C   0  0  0  0  0  0  0  0  0  0  0  0
    3.1965   -0.9497   -2.1735 C   0  0  0  0  0  0  0  0  0  0  0  0
    4.9016    0.0279    0.2713 C   0  0  0  0  0  0  0  0  0  0  0  0
    5.2117    0.7213    1.6061 C   0  0  0  0  0  0  0  0  0  0  0  0
    3.7730   -0.0229    2.4825 S   0  0  0  0  0  0  0  0  0  0  0  0
    0.0000    0.0000    0.0000 I   0  0  0  0  0 15  0  0  0  0  0  0
   -5.1843   -1.9083    2.1135 H   0  0  0  0  0  0  0  0  0  0  0  0
   -5.8037   -1.3534    0.5177 H   0  0  0  0  0  0  0  0  0  0  0  0
   -4.2847   -2.3763    0.6678 H   0  0  0  0  0  0  0  0  0  0  0  0
   -3.3718   -0.3844    2.0937 H   0  0  0  0  0  0  0  0  0  0  0  0
   -4.8667    0.4791    1.6531 H   0  0  0  0  0  0  0  0  0  0  0  0
   -4.8930   -0.1968   -1.3510 H   0  0  0  0  0  0  0  0  0  0  0  0
   -4.9983    1.4321   -0.6984 H   0  0  0  0  0  0  0  0  0  0  0  0
   -3.2203    2.1825   -2.0752 H   0  0  0  0  0  0  0  0  0  0  0  0
   -3.8518    0.8425   -3.1692 H   0  0  0  0  0  0  0  0  0  0  0  0
   -1.3320    0.0914    1.8503 H   0  0  0  0  0  0  0  0  0  0  0  0
    0.4798    0.1647   -0.6648 H   0  0  0  0  0  0  0  0  0  0  0  0
    0.9398    0.0506    2.2701 H   0  0  0  0  0  0  0  0  0  0  0  0
    2.1772    0.8443   -1.5857 H   0  0  0  0  0  0  0  0  0  0  0  0
    3.8770    1.0036   -1.8861 H   0  0  0  0  0  0  0  0  0  0  0  0
    2.4379   -1.7105   -1.9806 H   0  0  0  0  0  0  0  0  0  0  0  0
    3.0763   -0.6663   -3.2569 H   0  0  0  0  0  0  0  0  0  0  0  0
    4.1837   -1.4384   -2.0781 H   0  0  0  0  0  0  0  0  0  0  0  0
    5.2096   -1.0384    0.3730 H   0  0  0  0  0  0  0  0  0  0  0  0
    5.5016    0.5584   -0.4625 H   0  0  0  0  0  0  0  0  0  0  0  0
    5.0976    1.8024    1.5568 H   0  0  0  0  0  0  0  0  0  0  0  0
    6.1238    0.3406    2.0567 H   0  0  0  0  0  0  0  0  0  0  0  0
  1  2  1  0
  2  3  1  0
  3  4  1  0
  4  5  1  0
  5  6  1  0
  6  7  1  0
  7  8  2  0
  8  9  1  0
  9 10  2  0
 10 11  1  0
 11 12  2  0
 12 13  1  0
 13 14  1  0
 12 15  1  0
 15 16  1  0
 16 17  1  0
  7  3  1  0
 17 11  1  0
  1 19  1  0
  1 20  1  0
  1 21  1  0
  2 22  1  0
  2 23  1  0
  4 24  1  0
  4 25  1  0
  5 26  1  0
  5 27  1  0
  8 28  1  0
  9 29  1  0
 10 30  1  0
 13 31  1  0
 13 32  1  0
 14 33  1  0
 14 34  1  0
 14 35  1  0
 15 36  1  0
 15 37  1  0
 16 38  1  0
 16 39  1  0
M  CHG  2  12   1  18  -1
M  END
$$$$
