
     RDKit          3D

 37 39  0  0  0  0  0  0  0  0999 V2000
   -6.2033   -0.0836    1.0314 C   0  0  0  0  0  0  0  0  0  0  0  0
   -5.1362    0.8361    1.5967 C   0  0  0  0  0  0  0  0  0  0  0  0
   -3.8047    0.4153    1.2309 N   0  0  0  0  0  0  0  0  0  0  0  0
   -3.1262   -0.4662    1.9972 N   0  0  0  0  0  0  0  0  0  0  0  0
   -1.9462   -0.6708    1.4169 N   0  0  0  0  0  0  0  0  0  0  0  0
   -1.8940    0.0968    0.2795 C   0  0  0  0  0  0  0  0  0  0  0  0
   -0.9133    0.2869   -0.7086 C   0  0  0  0  0  0  0  0  0  0  0  0
    0.3080   -0.3915   -0.6845 N   0  0  0  0  0  0  0  0  0  0  0  0
    1.4221    0.3391   -1.2655 C   0  0  0  0  0  0  0  0  0  0  0  0
    2.6918   -0.4620   -1.0708 C   0  0  0  0  0  0  0  0  0  0  0  0
    3.0137   -1.4640   -2.0039 C   0  0  0  0  0  0  0  0  0  0  0  0
    4.1633   -2.2358   -1.8521 C   0  0  0  0  0  0  0  0  0  0  0  0
    4.9998   -2.0199   -0.7622 C   0  0  0  0  0  0  0  0  0  0  0  0
    4.6846   -1.0392    0.1824 C   0  0  0  0  0  0  0  0  0  0  0  0
    3.5305   -0.2603    0.0416 C   0  0  0  0  0  0  0  0  0  0  0  0
    3.1321    0.7079    0.9258 O   0  0  0  0  0  0  0  0  0  0  0  0
    3.9414    0.9195    2.0758 C   0  0  0  0  0  0  0  0  0  0  0  0
   -1.2057    1.1537   -1.7181 N   0  0  0  0  0  0  0  0  0  0  0  0
   -2.4061    1.7745   -1.7253 C   0  0  0  0  0  0  0  0  0  0  0  0
   -3.4075    1.6653   -0.8313 N   0  0  0  0  0  0  0  0  0  0  0  0
   -3.0742    0.8049    0.1459 C   0  0  0  0  0  0  0  0  0  0  0  0
   -6.1660   -0.1041   -0.0633 H   0  0  0  0  0  0  0  0  0  0  0  0
   -6.0707   -1.1107    1.3881 H   0  0  0  0  0  0  0  0  0  0  0  0
   -7.1981    0.2578    1.3336 H   0  0  0  0  0  0  0  0  0  0  0  0
   -5.2801    1.8591    1.2329 H   0  0  0  0  0  0  0  0  0  0  0  0
   -5.1901    0.8624    2.6906 H   0  0  0  0  0  0  0  0  0  0  0  0
    0.5053   -0.7515    0.2468 H   0  0  0  0  0  0  0  0  0  0  0  0
    1.2679    0.4963   -2.3414 H   0  0  0  0  0  0  0  0  0  0  0  0
    1.5248    1.3351   -0.8156 H   0  0  0  0  0  0  0  0  0  0  0  0
    2.3549   -1.6478   -2.8504 H   0  0  0  0  0  0  0  0  0  0  0  0
    4.4007   -3.0078   -2.5794 H   0  0  0  0  0  0  0  0  0  0  0  0
    5.8967   -2.6218   -0.6399 H   0  0  0  0  0  0  0  0  0  0  0  0
    5.3610   -0.9135    1.0211 H   0  0  0  0  0  0  0  0  0  0  0  0
    3.4750    1.7105    2.6709 H   0  0  0  0  0  0  0  0  0  0  0  0
    3.9886    0.0194    2.6980 H   0  0  0  0  0  0  0  0  0  0  0  0
    4.9429    1.2620    1.7954 H   0  0  0  0  0  0  0  0  0  0  0  0
   -2.5830    2.4476   -2.5593 H   0  0  0  0  0  0  0  0  0  0  0  0
  1  2  1  0
  2  3  1  0
  3  4  1  0
  4  5  2  0
  5  6  1  0
  6  7  2  0
  7  8  1  0
  8  9  1  0
  9 10  1  0
 10 11  2  0
 11 12  1  0
 12 13  2  0
 13 14  1  0
 14 15  2  0
 15 16  1  0
 16 17  1  0
  7 18  1  0
 18 19  2  0
 19 20  1  0
 20 21  2  0
 21  3  1  0
 21  6  1  0
 15 10  1  0
  1 22  1  0
  1 23  1  0
  1 24  1  0
  2 25  1  0
  2 26  1  0
  8 27  1  0
  9 28  1  0
  9 29  1  0
 11 30  1  0
 12 31  1  0
 13 32  1  0
 14 33  1  0
 17 34  1  0
 17 35  1  0
 17 36  1  0
 19 37  1  0
M  END
$$$$
