
     RDKit          3D

 49 51  0  0  0  0  0  0  0  0999 V2000
    6.2906    0.0169    0.1724 C   0  0  0  0  0  0  0  0  0  0  0  0
    5.9377   -1.2289    0.9741 C   0  0  0  0  0  0  0  0  0  0  0  0
    4.7782   -1.8737    0.4481 O   0  0  0  0  0  0  0  0  0  0  0  0
    3.5408   -1.4277    0.8169 C   0  0  0  0  0  0  0  0  0  0  0  0
    3.2651   -0.3496    1.6604 C   0  0  0  0  0  0  0  0  0  0  0  0
    1.9434    0.0099    1.9330 C   0  0  0  0  0  0  0  0  0  0  0  0
    0.8925   -0.7011    1.3473 C   0  0  0  0  0  0  0  0  0  0  0  0
   -0.7952   -0.2416    1.7014 S   0  0  0  0  0  6  0  0  0  0  0  0
   -1.5945   -1.4390    1.5698 O   0  0  0  0  0  0  0  0  0  0  0  0
   -0.7800    0.5221    2.9309 O   0  0  0  0  0  0  0  0  0  0  0  0
   -1.1969    0.8170    0.4469 N   0  0  0  0  0  0  0  0  0  0  0  0
   -0.4696    2.1033    0.3483 C   0  0  0  0  0  0  0  0  0  0  0  0
    0.0690    2.1324   -1.0742 C   0  0  0  0  0  0  0  0  0  0  0  0
   -1.0192    1.4196   -1.8492 C   0  0  0  0  0  0  0  0  0  0  0  0
   -1.3956    0.2638   -0.9147 C   0  0  0  0  0  0  0  0  0  0  0  0
   -2.7954   -0.1987   -1.1187 C   0  0  0  0  0  0  0  0  0  0  0  0
   -3.2190   -1.4169   -1.7335 C   0  0  0  0  0  0  0  0  0  0  0  0
   -2.3932   -2.5296   -2.2684 C   0  0  0  0  0  0  0  0  0  0  0  0
   -4.5522   -1.5007   -1.8006 N   0  0  0  0  0  0  0  0  0  0  0  0
   -5.0288   -0.3537   -1.2026 O   0  0  0  0  0  0  0  0  0  0  0  0
   -3.9872    0.4163   -0.7840 C   0  0  0  0  0  0  0  0  0  0  0  0
   -4.3589    1.6811   -0.1036 C   0  0  0  0  0  0  0  0  0  0  0  0
   -4.7398    1.4483    1.3514 C   0  0  0  0  0  0  0  0  0  0  0  0
    1.1568   -1.8106    0.5426 C   0  0  0  0  0  0  0  0  0  0  0  0
    2.4801   -2.1593    0.2710 C   0  0  0  0  0  0  0  0  0  0  0  0
    6.3941   -0.2224   -0.8936 H   0  0  0  0  0  0  0  0  0  0  0  0
    5.5068    0.7811    0.2501 H   0  0  0  0  0  0  0  0  0  0  0  0
    7.2307    0.4503    0.5273 H   0  0  0  0  0  0  0  0  0  0  0  0
    6.7636   -1.9456    0.8715 H   0  0  0  0  0  0  0  0  0  0  0  0
    5.8445   -1.0268    2.0471 H   0  0  0  0  0  0  0  0  0  0  0  0
    4.0531    0.2318    2.1276 H   0  0  0  0  0  0  0  0  0  0  0  0
    1.7457    0.8396    2.6075 H   0  0  0  0  0  0  0  0  0  0  0  0
    0.3336    2.2154    1.0782 H   0  0  0  0  0  0  0  0  0  0  0  0
   -1.1855    2.9175    0.5102 H   0  0  0  0  0  0  0  0  0  0  0  0
    0.2526    3.1500   -1.4352 H   0  0  0  0  0  0  0  0  0  0  0  0
    1.0080    1.5680   -1.1374 H   0  0  0  0  0  0  0  0  0  0  0  0
   -1.8602    2.1027   -2.0175 H   0  0  0  0  0  0  0  0  0  0  0  0
   -0.6811    1.0658   -2.8260 H   0  0  0  0  0  0  0  0  0  0  0  0
   -0.6884   -0.5514   -1.0899 H   0  0  0  0  0  0  0  0  0  0  0  0
   -2.9116   -3.0601   -3.0743 H   0  0  0  0  0  0  0  0  0  0  0  0
   -2.1661   -3.2497   -1.4726 H   0  0  0  0  0  0  0  0  0  0  0  0
   -1.4471   -2.1587   -2.6801 H   0  0  0  0  0  0  0  0  0  0  0  0
   -3.5345    2.3989   -0.1535 H   0  0  0  0  0  0  0  0  0  0  0  0
   -5.2041    2.1439   -0.6285 H   0  0  0  0  0  0  0  0  0  0  0  0
   -3.9167    1.0046    1.9190 H   0  0  0  0  0  0  0  0  0  0  0  0
   -5.5979    0.7778    1.4293 H   0  0  0  0  0  0  0  0  0  0  0  0
   -5.0079    2.3975    1.8304 H   0  0  0  0  0  0  0  0  0  0  0  0
    0.3487   -2.4105    0.1310 H   0  0  0  0  0  0  0  0  0  0  0  0
    2.6909   -3.0190   -0.3630 H   0  0  0  0  0  0  0  0  0  0  0  0
  1  2  1  0
  2  3  1  0
  3  4  1  0
  4  5  2  0
  5  6  1  0
  6  7  2  0
  7  8  1  0
  8  9  2  0
  8 10  2  0
  8 11  1  0
 11 12  1  0
 12 13  1  0
 13 14  1  0
 14 15  1  0
 15 16  1  0
 16 17  1  0
 17 18  1  0
 17 19  2  0
 19 20  1  0
 20 21  1  0
 21 22  1  0
 22 23  1  0
  7 24  1  0
 24 25  2  0
 25  4  1  0
 15 11  1  0
 21 16  2  0
  1 26  1  0
  1 27  1  0
  1 28  1  0
  2 29  1  0
  2 30  1  0
  5 31  1  0
  6 32  1  0
 12 33  1  0
 12 34  1  0
 13 35  1  0
 13 36  1  0
 14 37  1  0
 14 38  1  0
 15 39  1  0
 18 40  1  0
 18 41  1  0
 18 42  1  0
 22 43  1  0
 22 44  1  0
 23 45  1  0
 23 46  1  0
 23 47  1  0
 24 48  1  0
 25 49  1  0
M  END
$$$$
