
     RDKit          3D

 41 43  0  0  0  0  0  0  0  0999 V2000
   -1.2357   -4.4081   -1.2769 C   0  0  0  0  0  0  0  0  0  0  0  0
   -1.9526   -3.1646   -0.9332 C   0  0  0  0  0  0  0  0  0  0  0  0
   -3.3021   -3.2557   -0.8275 O   0  0  0  0  0  0  0  0  0  0  0  0
   -3.8274   -2.0147   -0.5350 N   0  0  0  0  0  0  0  0  0  0  0  0
   -2.7843   -1.1755   -0.4642 C   0  0  0  0  0  0  0  0  0  0  0  0
   -3.0107    0.2492   -0.2695 C   0  0  0  0  0  0  0  0  0  0  0  0
   -3.2580    1.0456   -1.3979 C   0  0  0  0  0  0  0  0  0  0  0  0
   -3.4775    2.4176   -1.2603 C   0  0  0  0  0  0  0  0  0  0  0  0
   -3.4558    3.0046    0.0033 C   0  0  0  0  0  0  0  0  0  0  0  0
   -3.2143    2.2216    1.1325 C   0  0  0  0  0  0  0  0  0  0  0  0
   -2.9939    0.8476    0.9987 C   0  0  0  0  0  0  0  0  0  0  0  0
   -2.6351   -0.0538    2.4297 Cl  0  0  0  0  0  0  0  0  0  0  0  0
   -1.5562   -1.8674   -0.6817 C   0  0  0  0  0  0  0  0  0  0  0  0
   -0.1836   -1.4011   -0.7285 C   0  0  0  0  0  0  0  0  0  0  0  0
    0.5601   -1.7717   -1.6268 O   0  0  0  0  0  0  0  0  0  0  0  0
    0.1527   -0.5356    0.2966 N   0  0  0  0  0  0  0  0  0  0  0  0
    1.3352    0.1509    0.5113 C   0  0  0  0  0  0  0  0  0  0  0  0
    1.2113    1.3436    1.1078 C   0  0  0  0  0  0  0  0  0  0  0  0
    2.3768    2.2029    1.3335 C   0  0  0  0  0  0  0  0  0  0  0  0
    2.2284    3.2367    1.9799 O   0  0  0  0  0  0  0  0  0  0  0  0
    3.5562    1.7751    0.7774 N   0  0  0  0  0  0  0  0  0  0  0  0
    4.7258    2.6193    0.9238 C   0  0  0  0  0  0  0  0  0  0  0  0
    3.7473    0.4885    0.2965 C   0  0  0  0  0  0  0  0  0  0  0  0
    4.8712    0.0717    0.0054 O   0  0  0  0  0  0  0  0  0  0  0  0
    2.6025   -0.3139    0.1964 N   0  0  0  0  0  0  0  0  0  0  0  0
    2.8615   -1.7090   -0.1339 C   0  0  0  0  0  0  0  0  0  0  0  0
   -1.8614   -5.2886   -1.1004 H   0  0  0  0  0  0  0  0  0  0  0  0
   -0.3301   -4.5134   -0.6714 H   0  0  0  0  0  0  0  0  0  0  0  0
   -0.9466   -4.4005   -2.3322 H   0  0  0  0  0  0  0  0  0  0  0  0
   -3.2913    0.5990   -2.3908 H   0  0  0  0  0  0  0  0  0  0  0  0
   -3.6734    3.0270   -2.1403 H   0  0  0  0  0  0  0  0  0  0  0  0
   -3.6313    4.0732    0.1093 H   0  0  0  0  0  0  0  0  0  0  0  0
   -3.2000    2.6911    2.1137 H   0  0  0  0  0  0  0  0  0  0  0  0
   -0.6252   -0.2336    0.8698 H   0  0  0  0  0  0  0  0  0  0  0  0
    0.2646    1.7681    1.4176 H   0  0  0  0  0  0  0  0  0  0  0  0
    5.3933    2.4986    0.0650 H   0  0  0  0  0  0  0  0  0  0  0  0
    4.4457    3.6734    1.0081 H   0  0  0  0  0  0  0  0  0  0  0  0
    5.2593    2.3182    1.8311 H   0  0  0  0  0  0  0  0  0  0  0  0
    3.8098   -2.0352    0.3083 H   0  0  0  0  0  0  0  0  0  0  0  0
    2.9514   -1.8101   -1.2189 H   0  0  0  0  0  0  0  0  0  0  0  0
    2.0933   -2.3713    0.2734 H   0  0  0  0  0  0  0  0  0  0  0  0
  1  2  1  0
  2  3  1  0
  3  4  1  0
  4  5  2  0
  5  6  1  0
  6  7  2  0
  7  8  1  0
  8  9  2  0
  9 10  1  0
 10 11  2  0
 11 12  1  0
  5 13  1  0
 13 14  1  0
 14 15  2  0
 14 16  1  0
 16 17  1  0
 17 18  2  0
 18 19  1  0
 19 20  2  0
 19 21  1  0
 21 22  1  0
 21 23  1  0
 23 24  2  0
 23 25  1  0
 25 26  1  0
 13  2  2  0
 25 17  1  0
 11  6  1  0
  1 27  1  0
  1 28  1  0
  1 29  1  0
  7 30  1  0
  8 31  1  0
  9 32  1  0
 10 33  1  0
 16 34  1  0
 18 35  1  0
 22 36  1  0
 22 37  1  0
 22 38  1  0
 26 39  1  0
 26 40  1  0
 26 41  1  0
M  END
$$$$
