
     RDKit          3D

 67 68  0  0  0  0  0  0  0  0999 V2000
   -3.4925    0.4371   -1.7044 C   0  0  0  0  0  0  0  0  0  0  0  0
   -3.4418   -1.0043   -1.3397 C   0  0  0  0  0  0  0  0  0  0  0  0
   -3.5908   -1.2925    0.0655 N   0  0  0  0  0  4  0  0  0  0  0  0
   -3.9808   -2.7201    0.1124 C   0  0  0  0  0  0  0  0  0  0  0  0
   -4.7125   -0.5634    0.5808 C   0  0  0  0  0  0  0  0  0  0  0  0
   -4.3807    0.4299    1.6456 C   0  0  0  0  0  0  0  0  0  0  0  0
   -2.3967   -1.1790    0.8260 C   0  0  0  0  0  0  0  0  0  0  0  0
   -1.3072   -0.3652    0.1960 C   0  0  0  0  0  0  0  0  0  0  0  0
   -0.1276   -0.3604    1.1437 C   0  0  0  0  0  0  0  0  0  0  0  0
    1.0021    0.4109    0.6248 N   0  0  0  0  0  4  0  0  0  0  0  0
    1.9605   -0.2082   -0.0886 C   0  0  0  0  0  0  0  0  0  0  0  0
    1.9015   -1.6423   -0.3249 C   0  0  0  0  0  0  0  0  0  0  0  0
    2.4507   -2.4827    0.6135 C   0  0  0  0  0  0  0  0  0  0  0  0
    2.4643   -3.8469    0.4949 C   0  0  0  0  0  0  0  0  0  0  0  0
    1.8948   -4.4351   -0.6322 C   0  0  0  0  0  0  0  0  0  0  0  0
    1.3350   -3.5896   -1.5899 C   0  0  0  0  0  0  0  0  0  0  0  0
    1.3406   -2.2279   -1.4356 C   0  0  0  0  0  0  0  0  0  0  0  0
    3.0369    0.5215   -0.5951 C   0  0  0  0  0  0  0  0  0  0  0  0
    4.0220   -0.1459   -1.3350 C   0  0  0  0  0  0  0  0  0  0  0  0
    5.0895    0.5523   -1.8425 C   0  0  0  0  0  0  0  0  0  0  0  0
    6.1203   -0.0930   -2.6058 N   0  0  0  0  0  0  0  0  0  0  0  0
    5.1524    1.9011   -1.6016 C   0  0  0  0  0  0  0  0  0  0  0  0
    4.1633    2.5694   -0.8591 C   0  0  0  0  0  0  0  0  0  0  0  0
    3.0838    1.8742   -0.3436 C   0  0  0  0  0  0  0  0  0  0  0  0
    2.1055    2.5136    0.3865 C   0  0  0  0  0  0  0  0  0  0  0  0
    2.1530    3.8682    0.6375 C   0  0  0  0  0  0  0  0  0  0  0  0
    1.1552    4.4724    1.3715 C   0  0  0  0  0  0  0  0  0  0  0  0
    0.0852    3.7529    1.8758 C   0  0  0  0  0  0  0  0  0  0  0  0
   -0.9392    4.3831    2.6313 N   0  0  0  0  0  0  0  0  0  0  0  0
    0.0662    2.3907    1.6058 C   0  0  0  0  0  0  0  0  0  0  0  0
    1.0401    1.7408    0.8771 C   0  0  0  0  0  0  0  0  0  0  0  0
    0.0000    0.0000    0.0000 I   0  0  0  0  0 15  0  0  0  0  0  0
    0.0000    0.0000    0.0000 I   0  0  0  0  0 15  0  0  0  0  0  0
   -2.4948    0.6959   -2.1668 H   0  0  0  0  0  0  0  0  0  0  0  0
   -3.7464    1.1395   -0.9130 H   0  0  0  0  0  0  0  0  0  0  0  0
   -4.2238    0.6385   -2.5424 H   0  0  0  0  0  0  0  0  0  0  0  0
   -4.3227   -1.5024   -1.8463 H   0  0  0  0  0  0  0  0  0  0  0  0
   -2.5545   -1.5384   -1.7800 H   0  0  0  0  0  0  0  0  0  0  0  0
   -3.9260   -2.9881    1.1882 H   0  0  0  0  0  0  0  0  0  0  0  0
   -3.2128   -3.2654   -0.4727 H   0  0  0  0  0  0  0  0  0  0  0  0
   -5.0070   -2.8634   -0.2551 H   0  0  0  0  0  0  0  0  0  0  0  0
   -5.5092   -1.2346    1.0236 H   0  0  0  0  0  0  0  0  0  0  0  0
   -5.2715   -0.0172   -0.2297 H   0  0  0  0  0  0  0  0  0  0  0  0
   -3.5103    1.0558    1.4685 H   0  0  0  0  0  0  0  0  0  0  0  0
   -5.2630    1.1347    1.7123 H   0  0  0  0  0  0  0  0  0  0  0  0
   -4.3587   -0.0508    2.6682 H   0  0  0  0  0  0  0  0  0  0  0  0
   -2.6114   -0.7372    1.8270 H   0  0  0  0  0  0  0  0  0  0  0  0
   -1.9343   -2.1821    1.0629 H   0  0  0  0  0  0  0  0  0  0  0  0
   -0.9836   -0.7095   -0.7771 H   0  0  0  0  0  0  0  0  0  0  0  0
   -1.6002    0.7083    0.0591 H   0  0  0  0  0  0  0  0  0  0  0  0
   -0.3886   -0.1179    2.1835 H   0  0  0  0  0  0  0  0  0  0  0  0
    0.2369   -1.4411    1.2186 H   0  0  0  0  0  0  0  0  0  0  0  0
    2.8956   -2.0458    1.4916 H   0  0  0  0  0  0  0  0  0  0  0  0
    2.9075   -4.4762    1.2574 H   0  0  0  0  0  0  0  0  0  0  0  0
    1.8760   -5.5084   -0.7806 H   0  0  0  0  0  0  0  0  0  0  0  0
    0.8965   -4.0823   -2.4619 H   0  0  0  0  0  0  0  0  0  0  0  0
    0.8899   -1.5928   -2.2115 H   0  0  0  0  0  0  0  0  0  0  0  0
    3.9384   -1.2095   -1.5042 H   0  0  0  0  0  0  0  0  0  0  0  0
    6.0753   -0.2039   -3.6288 H   0  0  0  0  0  0  0  0  0  0  0  0
    6.9475   -0.4588   -2.0646 H   0  0  0  0  0  0  0  0  0  0  0  0
    5.9793    2.5125   -1.9801 H   0  0  0  0  0  0  0  0  0  0  0  0
    4.2322    3.6111   -0.6854 H   0  0  0  0  0  0  0  0  0  0  0  0
    2.9464    4.4863    0.2810 H   0  0  0  0  0  0  0  0  0  0  0  0
    1.1740    5.5350    1.5797 H   0  0  0  0  0  0  0  0  0  0  0  0
   -0.6539    5.1270    3.2996 H   0  0  0  0  0  0  0  0  0  0  0  0
   -1.9184    4.1166    2.5230 H   0  0  0  0  0  0  0  0  0  0  0  0
   -0.7574    1.8028    1.9861 H   0  0  0  0  0  0  0  0  0  0  0  0
  1  2  1  0
  2  3  1  0
  3  4  1  0
  3  5  1  0
  5  6  1  0
  3  7  1  0
  7  8  1  0
  8  9  1  0
  9 10  1  0
 10 11  2  0
 11 12  1  0
 12 13  2  0
 13 14  1  0
 14 15  2  0
 15 16  1  0
 16 17  2  0
 11 18  1  0
 18 19  2  0
 19 20  1  0
 20 21  1  0
 20 22  2  0
 22 23  1  0
 23 24  2  0
 24 25  1  0
 25 26  2  0
 26 27  1  0
 27 28  2  0
 28 29  1  0
 28 30  1  0
 30 31  2  0
 31 10  1  0
 17 12  1  0
 24 18  1  0
 31 25  1  0
  1 34  1  0
  1 35  1  0
  1 36  1  0
  2 37  1  0
  2 38  1  0
  4 39  1  0
  4 40  1  0
  4 41  1  0
  5 42  1  0
  5 43  1  0
  6 44  1  0
  6 45  1  0
  6 46  1  0
  7 47  1  0
  7 48  1  0
  8 49  1  0
  8 50  1  0
  9 51  1  0
  9 52  1  0
 13 53  1  0
 14 54  1  0
 15 55  1  0
 16 56  1  0
 17 57  1  0
 19 58  1  0
 21 59  1  0
 21 60  1  0
 22 61  1  0
 23 62  1  0
 26 63  1  0
 27 64  1  0
 29 65  1  0
 29 66  1  0
 30 67  1  0
M  CHG  4   3   1  10   1  32  -1  33  -1
M  END
$$$$
