
     RDKit          3D

 36 39  0  0  0  0  0  0  0  0999 V2000
    0.1236   -3.5969    1.5535 C   0  0  0  0  0  0  0  0  0  0  0  0
   -0.1830   -2.2795    0.9516 C   0  0  0  0  0  0  0  0  0  0  0  0
   -1.4851   -1.8718    1.0271 O   0  0  0  0  0  0  0  0  0  0  0  0
   -1.5436   -0.6782    0.3984 C   0  0  0  0  0  0  0  0  0  0  0  0
   -0.3131   -0.3001   -0.0765 C   0  0  0  0  0  0  0  0  0  0  0  0
    0.5979   -1.3262    0.3066 C   0  0  0  0  0  0  0  0  0  0  0  0
    2.0268   -1.4687    0.0726 C   0  0  0  0  0  0  0  0  0  0  0  0
    2.5223   -2.5511   -0.2288 O   0  0  0  0  0  0  0  0  0  0  0  0
    2.9241   -0.2973    0.2497 C   0  0  0  0  0  0  0  0  0  0  0  0
    2.6985    0.6569    1.2523 C   0  0  0  0  0  0  0  0  0  0  0  0
    3.5805    1.7313    1.4023 C   0  0  0  0  0  0  0  0  0  0  0  0
    4.6892    1.8438    0.5631 C   0  0  0  0  0  0  0  0  0  0  0  0
    5.7737    3.1651    0.7561 Cl  0  0  0  0  0  0  0  0  0  0  0  0
    4.9313    0.8872   -0.4215 C   0  0  0  0  0  0  0  0  0  0  0  0
    4.0527   -0.1882   -0.5744 C   0  0  0  0  0  0  0  0  0  0  0  0
   -0.2071    0.9256   -0.8361 C   0  0  0  0  0  0  0  0  0  0  0  0
    0.8388    1.2878   -1.3552 O   0  0  0  0  0  0  0  0  0  0  0  0
   -1.4886    1.7796   -0.9898 C   0  0  0  0  0  0  0  0  0  0  0  0
   -1.4484    2.8647   -1.5534 O   0  0  0  0  0  0  0  0  0  0  0  0
   -2.7725    1.2542   -0.4273 C   0  0  0  0  0  0  0  0  0  0  0  0
   -3.9504    1.9922   -0.5894 C   0  0  0  0  0  0  0  0  0  0  0  0
   -5.1493    1.5065   -0.0657 C   0  0  0  0  0  0  0  0  0  0  0  0
   -5.1747    0.2895    0.6181 C   0  0  0  0  0  0  0  0  0  0  0  0
   -4.0019   -0.4508    0.7845 C   0  0  0  0  0  0  0  0  0  0  0  0
   -2.7967    0.0272    0.2644 C   0  0  0  0  0  0  0  0  0  0  0  0
    0.3130   -4.3371    0.7703 H   0  0  0  0  0  0  0  0  0  0  0  0
    1.0097   -3.5322    2.1924 H   0  0  0  0  0  0  0  0  0  0  0  0
   -0.7086   -3.9551    2.1675 H   0  0  0  0  0  0  0  0  0  0  0  0
    1.8537    0.5737    1.9302 H   0  0  0  0  0  0  0  0  0  0  0  0
    3.4014    2.4743    2.1753 H   0  0  0  0  0  0  0  0  0  0  0  0
    5.7982    0.9716   -1.0717 H   0  0  0  0  0  0  0  0  0  0  0  0
    4.2458   -0.9354   -1.3419 H   0  0  0  0  0  0  0  0  0  0  0  0
   -3.9401    2.9419   -1.1217 H   0  0  0  0  0  0  0  0  0  0  0  0
   -6.0669    2.0777   -0.1916 H   0  0  0  0  0  0  0  0  0  0  0  0
   -6.1129   -0.0845    1.0232 H   0  0  0  0  0  0  0  0  0  0  0  0
   -4.0382   -1.3978    1.3197 H   0  0  0  0  0  0  0  0  0  0  0  0
  1  2  1  0
  2  3  1  0
  3  4  1  0
  4  5  2  0
  5  6  1  0
  6  7  1  0
  7  8  2  0
  7  9  1  0
  9 10  2  0
 10 11  1  0
 11 12  2  0
 12 13  1  0
 12 14  1  0
 14 15  2  0
  5 16  1  0
 16 17  2  0
 16 18  1  0
 18 19  2  0
 18 20  1  0
 20 21  2  0
 21 22  1  0
 22 23  2  0
 23 24  1  0
 24 25  2  0
  6  2  2  0
 15  9  1  0
 25 20  1  0
 25  4  1  0
  1 26  1  0
  1 27  1  0
  1 28  1  0
 10 29  1  0
 11 30  1  0
 14 31  1  0
 15 32  1  0
 21 33  1  0
 22 34  1  0
 23 35  1  0
 24 36  1  0
M  END
$$$$
