
     RDKit          3D

 48 52  0  0  0  0  0  0  0  0999 V2000
    1.6748    3.3562    0.8770 O   0  0  0  0  0  0  0  0  0  0  0  0
    1.9271    2.2013    0.5517 C   0  0  0  0  0  0  0  0  0  0  0  0
    1.0028    1.1796    0.4484 N   0  0  0  0  0  0  0  0  0  0  0  0
   -0.3834    1.2378    0.7004 C   0  0  0  0  0  0  0  0  0  0  0  0
   -1.0540    2.3717    1.1438 C   0  0  0  0  0  0  0  0  0  0  0  0
   -2.4345    2.3331    1.3742 C   0  0  0  0  0  0  0  0  0  0  0  0
   -3.1859    1.1701    1.1444 C   0  0  0  0  0  0  0  0  0  0  0  0
   -2.5121    0.0121    0.7279 C   0  0  0  0  0  0  0  0  0  0  0  0
   -1.1181    0.0637    0.5074 C   0  0  0  0  0  0  0  0  0  0  0  0
   -3.1138   -1.3476    0.6548 C   0  0  0  0  0  0  0  0  0  0  0  0
   -2.3996   -2.3257    0.8691 O   0  0  0  0  0  0  0  0  0  0  0  0
   -4.4469   -1.4756    0.3679 N   0  0  0  0  0  0  0  0  0  0  0  0
   -5.1015   -2.7704    0.3541 C   0  0  0  0  0  0  0  0  0  0  0  0
   -6.5702   -2.4406    0.1525 C   0  0  0  0  0  0  0  0  0  0  0  0
   -6.5135   -1.2009   -0.7342 C   0  0  0  0  0  0  0  0  0  0  0  0
   -5.2862   -0.4458   -0.2152 C   0  0  1  0  0  0  0  0  0  0  0  0
   -5.6091    0.5966    0.8498 C   0  0  0  0  0  0  0  0  0  0  0  0
   -6.7583    0.9283    1.1443 O   0  0  0  0  0  0  0  0  0  0  0  0
   -4.5649    1.2974    1.3922 N   0  0  0  0  0  0  0  0  0  0  0  0
    3.2808    1.8152    0.2316 C   0  0  0  0  0  0  0  0  0  0  0  0
    3.8787    0.6330   -0.1553 C   0  0  0  0  0  0  0  0  0  0  0  0
    5.2650    0.9197   -0.3194 C   0  0  0  0  0  0  0  0  0  0  0  0
    6.3120   -0.0271   -0.7259 C   0  0  0  0  0  0  0  0  0  0  0  0
    7.6412    0.3713   -0.8432 C   0  0  0  0  0  0  0  0  0  0  0  0
    8.5925   -0.5689   -1.2315 C   0  0  0  0  0  0  0  0  0  0  0  0
    8.1924   -1.8740   -1.4904 C   0  0  0  0  0  0  0  0  0  0  0  0
    6.8508   -2.1879   -1.3503 C   0  0  0  0  0  0  0  0  0  0  0  0
    5.9032   -1.3002   -0.9762 N   0  0  0  0  0  0  0  0  0  0  0  0
    5.5080    2.2142   -0.0463 N   0  0  0  0  0  0  0  0  0  0  0  0
    4.3076    2.7180    0.2801 N   0  0  0  0  0  0  0  0  0  0  0  0
    1.3582    0.2790    0.1573 H   0  0  0  0  0  0  0  0  0  0  0  0
   -0.5387    3.3093    1.3288 H   0  0  0  0  0  0  0  0  0  0  0  0
   -2.9167    3.2474    1.7167 H   0  0  0  0  0  0  0  0  0  0  0  0
   -0.6053   -0.8483    0.2024 H   0  0  0  0  0  0  0  0  0  0  0  0
   -4.9057   -3.3153    1.2823 H   0  0  0  0  0  0  0  0  0  0  0  0
   -4.7008   -3.3458   -0.4882 H   0  0  0  0  0  0  0  0  0  0  0  0
   -7.1296   -3.2642   -0.2992 H   0  0  0  0  0  0  0  0  0  0  0  0
   -7.0377   -2.1904    1.1124 H   0  0  0  0  0  0  0  0  0  0  0  0
   -6.3392   -1.5115   -1.7722 H   0  0  0  0  0  0  0  0  0  0  0  0
   -7.4436   -0.6265   -0.7098 H   0  0  0  0  0  0  0  0  0  0  0  0
   -4.7664    0.0534   -1.0416 H   0  0  0  0  0  0  0  0  0  0  0  0
   -4.8835    2.1009    1.9223 H   0  0  0  0  0  0  0  0  0  0  0  0
    3.4174   -0.3322   -0.3107 H   0  0  0  0  0  0  0  0  0  0  0  0
    7.9340    1.3960   -0.6359 H   0  0  0  0  0  0  0  0  0  0  0  0
    9.6355   -0.2819   -1.3295 H   0  0  0  0  0  0  0  0  0  0  0  0
    8.9090   -2.6290   -1.7940 H   0  0  0  0  0  0  0  0  0  0  0  0
    6.4912   -3.1952   -1.5416 H   0  0  0  0  0  0  0  0  0  0  0  0
    4.2372    3.6996    0.5323 H   0  0  0  0  0  0  0  0  0  0  0  0
  1  2  2  0
  2  3  1  0
  3  4  1  0
  4  5  2  0
  5  6  1  0
  6  7  2  0
  7  8  1  0
  8  9  2  0
  8 10  1  0
 10 11  2  0
 10 12  1  0
 12 13  1  0
 13 14  1  0
 14 15  1  0
 15 16  1  0
 16 17  1  0
 17 18  2  0
 17 19  1  0
  2 20  1  0
 20 21  2  0
 21 22  1  0
 22 23  1  0
 23 24  2  0
 24 25  1  0
 25 26  2  0
 26 27  1  0
 27 28  2  0
 22 29  2  0
 29 30  1  0
  9  4  1  0
 16 12  1  0
 30 20  1  0
 19  7  1  0
 28 23  1  0
  3 31  1  0
  5 32  1  0
  6 33  1  0
  9 34  1  0
 13 35  1  0
 13 36  1  0
 14 37  1  0
 14 38  1  0
 15 39  1  0
 15 40  1  0
 16 41  1  6
 19 42  1  0
 21 43  1  0
 24 44  1  0
 25 45  1  0
 26 46  1  0
 27 47  1  0
 30 48  1  0
M  END
$$$$
