
     RDKit          3D

 29 30  0  0  0  0  0  0  0  0999 V2000
    3.7187   -0.4783    2.5025 C   0  0  0  0  0  0  0  0  0  0  0  0
    3.7482   -1.9559    1.4567 S   0  0  0  0  0  0  0  0  0  0  0  0
    2.3139   -1.6028    0.3869 C   0  0  0  0  0  0  0  0  0  0  0  0
    2.6217   -0.5151   -0.6457 C   0  0  0  0  0  0  0  0  0  0  0  0
    1.4469   -0.2954   -1.6158 C   0  0  0  0  0  0  0  0  0  0  0  0
    1.8660    0.6269   -2.6871 N   0  0  0  0  0  0  0  0  0  0  0  0
    0.2178    0.1985   -0.9140 C   0  0  0  0  0  0  0  0  0  0  0  0
   -1.0009   -0.2895   -0.9223 N   0  0  0  0  0  0  0  0  0  0  0  0
   -1.6742    0.5875   -0.1059 C   0  0  0  0  0  0  0  0  0  0  0  0
   -3.1983    0.4436    0.2218 C   0  0  0  0  0  0  0  0  0  0  0  0
   -3.9030    1.3042    1.0367 C   0  0  0  0  0  0  0  0  0  0  0  0
   -5.2738    0.9263    1.1543 C   0  0  0  0  0  0  0  0  0  0  0  0
   -5.5600   -0.2070    0.4247 C   0  0  0  0  0  0  0  0  0  0  0  0
   -4.1816   -0.8070   -0.3946 S   0  0  0  0  0  0  0  0  0  0  0  0
   -0.9155    1.5769    0.3901 N   0  0  0  0  0  0  0  0  0  0  0  0
    0.3436    1.3240   -0.1512 O   0  0  0  0  0  0  0  0  0  0  0  0
    4.4702   -0.5847    3.2896 H   0  0  0  0  0  0  0  0  0  0  0  0
    3.9587    0.4143    1.9202 H   0  0  0  0  0  0  0  0  0  0  0  0
    2.7395   -0.3615    2.9738 H   0  0  0  0  0  0  0  0  0  0  0  0
    1.4623   -1.3358    1.0204 H   0  0  0  0  0  0  0  0  0  0  0  0
    2.0579   -2.5358   -0.1265 H   0  0  0  0  0  0  0  0  0  0  0  0
    3.5074   -0.8122   -1.2240 H   0  0  0  0  0  0  0  0  0  0  0  0
    2.8716    0.4274   -0.1425 H   0  0  0  0  0  0  0  0  0  0  0  0
    1.2057   -1.2534   -2.0926 H   0  0  0  0  0  0  0  0  0  0  0  0
    2.0493    1.5497   -2.2930 H   0  0  0  0  0  0  0  0  0  0  0  0
    1.0911    0.7465   -3.3410 H   0  0  0  0  0  0  0  0  0  0  0  0
   -3.4616    2.1641    1.5268 H   0  0  0  0  0  0  0  0  0  0  0  0
   -6.0108    1.4585    1.7436 H   0  0  0  0  0  0  0  0  0  0  0  0
   -6.5108   -0.7139    0.3313 H   0  0  0  0  0  0  0  0  0  0  0  0
  1  2  1  0
  2  3  1  0
  3  4  1  0
  4  5  1  0
  5  6  1  0
  5  7  1  0
  7  8  2  0
  8  9  1  0
  9 10  1  0
 10 11  2  0
 11 12  1  0
 12 13  2  0
 13 14  1  0
  9 15  2  0
 15 16  1  0
 16  7  1  0
 14 10  1  0
  1 17  1  0
  1 18  1  0
  1 19  1  0
  3 20  1  0
  3 21  1  0
  4 22  1  0
  4 23  1  0
  5 24  1  0
  6 25  1  0
  6 26  1  0
 11 27  1  0
 12 28  1  0
 13 29  1  0
M  END
$$$$
