
     RDKit          3D

 39 42  0  0  0  0  0  0  0  0999 V2000
    3.7105    1.3420    1.8296 O   0  0  0  0  0  0  0  0  0  0  0  0
    3.3974    1.1980    0.6504 C   0  0  0  0  0  0  0  0  0  0  0  0
    3.0966    2.4086   -0.2183 C   0  0  0  0  0  0  0  0  0  0  0  0
    1.3078    2.6914   -0.3449 S   0  0  0  0  0  0  0  0  0  0  0  0
    0.8504    1.5224   -1.5372 C   0  0  0  0  0  0  0  0  0  0  0  0
    1.6884    0.7129   -2.1511 N   0  0  0  0  0  0  0  0  0  0  0  0
    0.9169   -0.0192   -3.0170 C   0  0  0  0  0  0  0  0  0  0  0  0
   -0.4039    0.3433   -2.9154 C   0  0  0  0  0  0  0  0  0  0  0  0
   -0.4419    1.3193   -1.9469 N   0  0  0  0  0  0  0  0  0  0  0  0
   -1.6500    2.0041   -1.5144 C   0  0  0  0  0  0  0  0  0  0  0  0
   -2.4691    1.1452   -0.5806 C   0  0  0  0  0  0  0  0  0  0  0  0
   -3.5793    0.4169   -1.0718 C   0  0  0  0  0  0  0  0  0  0  0  0
   -4.3414   -0.3955   -0.2256 C   0  0  0  0  0  0  0  0  0  0  0  0
   -3.9733   -0.4647    1.0993 C   0  0  0  0  0  0  0  0  0  0  0  0
   -2.8974    0.2364    1.5879 C   0  0  0  0  0  0  0  0  0  0  0  0
   -2.1289    1.0479    0.7797 C   0  0  0  0  0  0  0  0  0  0  0  0
   -2.7066    0.0327    2.9182 O   0  0  0  0  0  0  0  0  0  0  0  0
   -3.7696   -0.8978    3.2062 C   0  0  0  0  0  0  0  0  0  0  0  0
   -4.5921   -1.2018    2.0592 O   0  0  0  0  0  0  0  0  0  0  0  0
    3.2888    0.0107   -0.0366 N   0  0  0  0  0  0  0  0  0  0  0  0
    3.5159   -1.2053    0.5354 C   0  0  0  0  0  0  0  0  0  0  0  0
    3.9767   -1.4967    1.7239 N   0  0  0  0  0  0  0  0  0  0  0  0
    4.0458   -2.8683    1.8635 C   0  0  0  0  0  0  0  0  0  0  0  0
    3.6368   -3.5990    0.7680 C   0  0  0  0  0  0  0  0  0  0  0  0
    3.1499   -2.5297   -0.4828 S   0  0  0  0  0  0  0  0  0  0  0  0
    3.5511    3.2865    0.2538 H   0  0  0  0  0  0  0  0  0  0  0  0
    3.5616    2.3045   -1.2046 H   0  0  0  0  0  0  0  0  0  0  0  0
    1.3501   -0.7676   -3.6688 H   0  0  0  0  0  0  0  0  0  0  0  0
   -1.2923   -0.0059   -3.4230 H   0  0  0  0  0  0  0  0  0  0  0  0
   -1.3950    2.9567   -1.0420 H   0  0  0  0  0  0  0  0  0  0  0  0
   -2.2207    2.2515   -2.4181 H   0  0  0  0  0  0  0  0  0  0  0  0
   -3.8544    0.4782   -2.1230 H   0  0  0  0  0  0  0  0  0  0  0  0
   -5.1921   -0.9557   -0.5969 H   0  0  0  0  0  0  0  0  0  0  0  0
   -1.2888    1.5903    1.2006 H   0  0  0  0  0  0  0  0  0  0  0  0
   -3.3296   -1.8302    3.5794 H   0  0  0  0  0  0  0  0  0  0  0  0
   -4.4058   -0.4714    3.9905 H   0  0  0  0  0  0  0  0  0  0  0  0
    2.8809    0.0136   -0.9691 H   0  0  0  0  0  0  0  0  0  0  0  0
    4.4045   -3.2859    2.7960 H   0  0  0  0  0  0  0  0  0  0  0  0
    3.6026   -4.6720    0.6467 H   0  0  0  0  0  0  0  0  0  0  0  0
  1  2  2  0
  2  3  1  0
  3  4  1  0
  4  5  1  0
  5  6  2  0
  6  7  1  0
  7  8  2  0
  8  9  1  0
  9 10  1  0
 10 11  1  0
 11 12  2  0
 12 13  1  0
 13 14  2  0
 14 15  1  0
 15 16  2  0
 15 17  1  0
 17 18  1  0
 18 19  1  0
  2 20  1  0
 20 21  1  0
 21 22  2  0
 22 23  1  0
 23 24  2  0
 24 25  1  0
  9  5  1  0
 16 11  1  0
 25 21  1  0
 19 14  1  0
  3 26  1  0
  3 27  1  0
  7 28  1  0
  8 29  1  0
 10 30  1  0
 10 31  1  0
 12 32  1  0
 13 33  1  0
 16 34  1  0
 18 35  1  0
 18 36  1  0
 20 37  1  0
 23 38  1  0
 24 39  1  0
M  END
$$$$
