
     RDKit          3D

 49 51  0  0  0  0  0  0  0  0999 V2000
   -8.3867    2.0830    0.1752 C   0  0  0  0  0  0  0  0  0  0  0  0
   -6.9255    1.6697    0.2592 C   0  0  0  0  0  0  0  0  0  0  0  0
   -6.5650    0.6573   -0.8300 C   0  0  0  0  0  0  0  0  0  0  0  0
   -5.1589    0.2580   -0.7545 N   0  0  0  0  0  0  0  0  0  0  0  0
   -4.2155    0.9841   -1.4560 C   0  0  0  0  0  0  0  0  0  0  0  0
   -2.9104    0.6995   -1.4068 C   0  0  0  0  0  0  0  0  0  0  0  0
   -2.4342   -0.4227   -0.5927 C   0  0  0  0  0  0  0  0  0  0  0  0
   -1.0738   -0.7636   -0.5060 C   0  0  0  0  0  0  0  0  0  0  0  0
   -0.1650   -0.0335   -1.2302 O   0  0  0  0  0  0  0  0  0  0  0  0
    0.8726    0.5304   -0.4350 C   0  0  0  0  0  0  0  0  0  0  0  0
    2.2412   -0.1514   -0.5898 C   0  0  0  0  0  0  0  0  0  0  0  0
    2.3805   -1.2123   -1.1895 O   0  0  0  0  0  0  0  0  0  0  0  0
    3.2499    0.5713    0.0383 N   0  0  0  0  0  0  0  0  0  0  0  0
    4.6239    0.2553    0.0939 C   0  0  0  0  0  0  0  0  0  0  0  0
    5.4573    1.1465    0.7848 C   0  0  0  0  0  0  0  0  0  0  0  0
    6.8377    0.9174    0.8838 C   0  0  0  0  0  0  0  0  0  0  0  0
    7.4030   -0.2096    0.2907 C   0  0  0  0  0  0  0  0  0  0  0  0
    8.7277   -0.5515    0.3060 O   0  0  0  0  0  0  0  0  0  0  0  0
    9.6193    0.3501    0.9494 C   0  0  0  0  0  0  0  0  0  0  0  0
    6.5738   -1.1011   -0.3936 C   0  0  0  0  0  0  0  0  0  0  0  0
    5.1945   -0.8729   -0.4937 C   0  0  0  0  0  0  0  0  0  0  0  0
   -0.6661   -1.8738    0.2450 C   0  0  0  0  0  0  0  0  0  0  0  0
   -1.6046   -2.6213    0.9568 C   0  0  0  0  0  0  0  0  0  0  0  0
   -2.9534   -2.2725    0.9067 C   0  0  0  0  0  0  0  0  0  0  0  0
   -3.3665   -1.1802    0.1302 C   0  0  0  0  0  0  0  0  0  0  0  0
   -4.8121   -0.8171    0.0738 C   0  0  0  0  0  0  0  0  0  0  0  0
   -5.6254   -1.4517    0.7426 O   0  0  0  0  0  0  0  0  0  0  0  0
   -9.0480    1.2200    0.3055 H   0  0  0  0  0  0  0  0  0  0  0  0
   -8.6076    2.5422   -0.7936 H   0  0  0  0  0  0  0  0  0  0  0  0
   -8.6215    2.8111    0.9582 H   0  0  0  0  0  0  0  0  0  0  0  0
   -6.2916    2.5601    0.1656 H   0  0  0  0  0  0  0  0  0  0  0  0
   -6.7267    1.2447    1.2497 H   0  0  0  0  0  0  0  0  0  0  0  0
   -7.1949   -0.2352   -0.7284 H   0  0  0  0  0  0  0  0  0  0  0  0
   -6.7661    1.0730   -1.8252 H   0  0  0  0  0  0  0  0  0  0  0  0
   -4.5798    1.8113   -2.0602 H   0  0  0  0  0  0  0  0  0  0  0  0
   -2.1923    1.2805   -1.9733 H   0  0  0  0  0  0  0  0  0  0  0  0
    0.6134    0.5678    0.6324 H   0  0  0  0  0  0  0  0  0  0  0  0
    0.9865    1.5686   -0.7712 H   0  0  0  0  0  0  0  0  0  0  0  0
    2.9798    1.4289    0.5040 H   0  0  0  0  0  0  0  0  0  0  0  0
    5.0498    2.0374    1.2581 H   0  0  0  0  0  0  0  0  0  0  0  0
    7.4381    1.6386    1.4296 H   0  0  0  0  0  0  0  0  0  0  0  0
    9.6056    1.3304    0.4632 H   0  0  0  0  0  0  0  0  0  0  0  0
    9.3935    0.4364    2.0189 H   0  0  0  0  0  0  0  0  0  0  0  0
   10.6303   -0.0564    0.8542 H   0  0  0  0  0  0  0  0  0  0  0  0
    7.0026   -1.9866   -0.8606 H   0  0  0  0  0  0  0  0  0  0  0  0
    4.6030   -1.5999   -1.0420 H   0  0  0  0  0  0  0  0  0  0  0  0
    0.3780   -2.1857    0.2594 H   0  0  0  0  0  0  0  0  0  0  0  0
   -1.2859   -3.4844    1.5373 H   0  0  0  0  0  0  0  0  0  0  0  0
   -3.6847   -2.8582    1.4597 H   0  0  0  0  0  0  0  0  0  0  0  0
  1  2  1  0
  2  3  1  0
  3  4  1  0
  4  5  1  0
  5  6  2  0
  6  7  1  0
  7  8  2  0
  8  9  1  0
  9 10  1  0
 10 11  1  0
 11 12  2  0
 11 13  1  0
 13 14  1  0
 14 15  2  0
 15 16  1  0
 16 17  2  0
 17 18  1  0
 18 19  1  0
 17 20  1  0
 20 21  2  0
  8 22  1  0
 22 23  2  0
 23 24  1  0
 24 25  2  0
 25 26  1  0
 26 27  2  0
 26  4  1  0
 25  7  1  0
 21 14  1  0
  1 28  1  0
  1 29  1  0
  1 30  1  0
  2 31  1  0
  2 32  1  0
  3 33  1  0
  3 34  1  0
  5 35  1  0
  6 36  1  0
 10 37  1  0
 10 38  1  0
 13 39  1  0
 15 40  1  0
 16 41  1  0
 19 42  1  0
 19 43  1  0
 19 44  1  0
 20 45  1  0
 21 46  1  0
 22 47  1  0
 23 48  1  0
 24 49  1  0
M  END
$$$$
