
     RDKit          3D

 37 39  0  0  0  0  0  0  0  0999 V2000
   -3.3187   -0.9781   -2.0988 C   0  0  0  0  0  0  0  0  0  0  0  0
   -2.9159    0.4337   -1.6981 C   0  0  0  0  0  0  0  0  0  0  0  0
   -2.1577    0.4618   -0.4521 N   0  0  0  0  0  0  0  0  0  0  0  0
   -0.7704    0.3611   -0.5253 C   0  0  0  0  0  0  0  0  0  0  0  0
   -0.1348    0.2096   -1.5658 O   0  0  0  0  0  0  0  0  0  0  0  0
    0.0066    0.4153    0.7796 C   0  0  0  0  0  0  0  0  0  0  0  0
    1.5432    0.4465    0.8081 C   0  0  0  0  0  0  0  0  0  0  0  0
    2.1016    0.9225    1.7877 O   0  0  0  0  0  0  0  0  0  0  0  0
    2.1541   -0.0795   -0.3171 N   0  0  0  0  0  0  0  0  0  0  0  0
    3.5349   -0.2306   -0.5551 C   0  0  0  0  0  0  0  0  0  0  0  0
    4.5264    0.0416    0.3927 C   0  0  0  0  0  0  0  0  0  0  0  0
    5.8797   -0.1397    0.0814 C   0  0  0  0  0  0  0  0  0  0  0  0
    6.2508   -0.5970   -1.1798 C   0  0  0  0  0  0  0  0  0  0  0  0
    5.2649   -0.8702   -2.1178 C   0  0  0  0  0  0  0  0  0  0  0  0
    5.6158   -1.3124   -3.3328 F   0  0  0  0  0  0  0  0  0  0  0  0
    3.9169   -0.6935   -1.8188 C   0  0  0  0  0  0  0  0  0  0  0  0
   -0.5985    0.4333    1.9335 N   0  0  0  0  0  0  0  0  0  0  0  0
   -1.9977    0.4464    1.9739 C   0  0  0  0  0  0  0  0  0  0  0  0
   -2.5981    0.4472    3.2379 C   0  0  0  0  0  0  0  0  0  0  0  0
   -3.9844    0.4705    3.3707 C   0  0  0  0  0  0  0  0  0  0  0  0
   -4.7826    0.4937    2.2328 C   0  0  0  0  0  0  0  0  0  0  0  0
   -4.1956    0.4943    0.9638 C   0  0  0  0  0  0  0  0  0  0  0  0
   -2.8001    0.4722    0.8191 C   0  0  0  0  0  0  0  0  0  0  0  0
   -3.9629   -1.4410   -1.3450 H   0  0  0  0  0  0  0  0  0  0  0  0
   -2.4383   -1.6175   -2.2214 H   0  0  0  0  0  0  0  0  0  0  0  0
   -3.8630   -0.9616   -3.0481 H   0  0  0  0  0  0  0  0  0  0  0  0
   -2.2942    0.8545   -2.4982 H   0  0  0  0  0  0  0  0  0  0  0  0
   -3.7863    1.0938   -1.6299 H   0  0  0  0  0  0  0  0  0  0  0  0
    1.5392   -0.3071   -1.0992 H   0  0  0  0  0  0  0  0  0  0  0  0
    4.2812    0.3938    1.3906 H   0  0  0  0  0  0  0  0  0  0  0  0
    6.6387    0.0774    0.8291 H   0  0  0  0  0  0  0  0  0  0  0  0
    7.2953   -0.7421   -1.4350 H   0  0  0  0  0  0  0  0  0  0  0  0
    3.1840   -0.9195   -2.5869 H   0  0  0  0  0  0  0  0  0  0  0  0
   -1.9694    0.4327    4.1255 H   0  0  0  0  0  0  0  0  0  0  0  0
   -4.4360    0.4716    4.3594 H   0  0  0  0  0  0  0  0  0  0  0  0
   -5.8656    0.5107    2.3308 H   0  0  0  0  0  0  0  0  0  0  0  0
   -4.8630    0.5056    0.1087 H   0  0  0  0  0  0  0  0  0  0  0  0
  1  2  1  0
  2  3  1  0
  3  4  1  0
  4  5  2  0
  4  6  1  0
  6  7  1  0
  7  8  2  0
  7  9  1  0
  9 10  1  0
 10 11  2  0
 11 12  1  0
 12 13  2  0
 13 14  1  0
 14 15  1  0
 14 16  2  0
  6 17  2  0
 17 18  1  0
 18 19  2  0
 19 20  1  0
 20 21  2  0
 21 22  1  0
 22 23  2  0
 23  3  1  0
 16 10  1  0
 23 18  1  0
  1 24  1  0
  1 25  1  0
  1 26  1  0
  2 27  1  0
  2 28  1  0
  9 29  1  0
 11 30  1  0
 12 31  1  0
 13 32  1  0
 16 33  1  0
 19 34  1  0
 20 35  1  0
 21 36  1  0
 22 37  1  0
M  END
$$$$
