
     RDKit          3D

 41 43  0  0  0  0  0  0  0  0999 V2000
    1.4409   -1.5898    1.5880 O   0  0  0  0  0  0  0  0  0  0  0  0
    0.8842   -0.7481    0.8873 C   0  0  0  0  0  0  0  0  0  0  0  0
    1.5203    0.3357    0.3204 N   0  0  0  0  0  0  0  0  0  0  0  0
    2.9075    0.5752    0.2548 C   0  0  0  0  0  0  0  0  0  0  0  0
    3.8737   -0.4046    0.4897 C   0  0  0  0  0  0  0  0  0  0  0  0
    5.2337   -0.0966    0.3853 C   0  0  0  0  0  0  0  0  0  0  0  0
    5.6372    1.1908    0.0382 C   0  0  0  0  0  0  0  0  0  0  0  0
    4.6806    2.1721   -0.2085 C   0  0  0  0  0  0  0  0  0  0  0  0
    3.3217    1.8644   -0.1041 C   0  0  0  0  0  0  0  0  0  0  0  0
   -0.4922   -0.8051    0.6221 N   0  0  0  0  0  0  0  0  0  0  0  0
   -1.2944   -1.6868    1.4778 C   0  0  0  0  0  0  0  0  0  0  0  0
   -1.7151   -2.9721    0.7796 C   0  0  0  0  0  0  0  0  0  0  0  0
   -3.0635   -2.8512    0.0720 C   0  0  0  0  0  0  0  0  0  0  0  0
   -3.3262   -1.5182   -0.6263 C   0  0  0  0  0  0  0  0  0  0  0  0
   -2.1139   -0.9743   -1.3727 C   0  0  0  0  0  0  0  0  0  0  0  0
   -1.1063   -0.1470   -0.5457 C   0  0  0  0  0  0  0  0  0  0  0  0
   -1.6020    1.2593   -0.2366 C   0  0  0  0  0  0  0  0  0  0  0  0
   -1.5739    2.3429   -1.1018 C   0  0  0  0  0  0  0  0  0  0  0  0
   -2.0957    3.5327   -0.5197 C   0  0  0  0  0  0  0  0  0  0  0  0
   -2.5082    3.3291    0.7759 C   0  0  0  0  0  0  0  0  0  0  0  0
   -2.2659    1.7164    1.2778 S   0  0  0  0  0  0  0  0  0  0  0  0
    0.9310    1.1429    0.1812 H   0  0  0  0  0  0  0  0  0  0  0  0
    3.5969   -1.4218    0.7506 H   0  0  0  0  0  0  0  0  0  0  0  0
    5.9756   -0.8678    0.5760 H   0  0  0  0  0  0  0  0  0  0  0  0
    6.6951    1.4266   -0.0404 H   0  0  0  0  0  0  0  0  0  0  0  0
    4.9913    3.1772   -0.4809 H   0  0  0  0  0  0  0  0  0  0  0  0
    2.5940    2.6472   -0.3010 H   0  0  0  0  0  0  0  0  0  0  0  0
   -2.1594   -1.1358    1.8578 H   0  0  0  0  0  0  0  0  0  0  0  0
   -0.7107   -1.9538    2.3664 H   0  0  0  0  0  0  0  0  0  0  0  0
   -0.9436   -3.2919    0.0685 H   0  0  0  0  0  0  0  0  0  0  0  0
   -1.8012   -3.7756    1.5215 H   0  0  0  0  0  0  0  0  0  0  0  0
   -3.1423   -3.6666   -0.6581 H   0  0  0  0  0  0  0  0  0  0  0  0
   -3.8691   -3.0201    0.7978 H   0  0  0  0  0  0  0  0  0  0  0  0
   -4.1414   -1.6772   -1.3439 H   0  0  0  0  0  0  0  0  0  0  0  0
   -3.7055   -0.7825    0.0901 H   0  0  0  0  0  0  0  0  0  0  0  0
   -1.5848   -1.8083   -1.8524 H   0  0  0  0  0  0  0  0  0  0  0  0
   -2.4822   -0.3459   -2.1951 H   0  0  0  0  0  0  0  0  0  0  0  0
   -0.2816    0.0068   -1.2578 H   0  0  0  0  0  0  0  0  0  0  0  0
   -1.1954    2.2828   -2.1161 H   0  0  0  0  0  0  0  0  0  0  0  0
   -2.1668    4.4883   -1.0250 H   0  0  0  0  0  0  0  0  0  0  0  0
   -2.9424    4.0505    1.4548 H   0  0  0  0  0  0  0  0  0  0  0  0
  1  2  2  0
  2  3  1  0
  3  4  1  0
  4  5  2  0
  5  6  1  0
  6  7  2  0
  7  8  1  0
  8  9  2  0
  2 10  1  0
 10 11  1  0
 11 12  1  0
 12 13  1  0
 13 14  1  0
 14 15  1  0
 15 16  1  0
 16 17  1  0
 17 18  2  0
 18 19  1  0
 19 20  2  0
 20 21  1  0
  9  4  1  0
 16 10  1  0
 21 17  1  0
  3 22  1  0
  5 23  1  0
  6 24  1  0
  7 25  1  0
  8 26  1  0
  9 27  1  0
 11 28  1  0
 11 29  1  0
 12 30  1  0
 12 31  1  0
 13 32  1  0
 13 33  1  0
 14 34  1  0
 14 35  1  0
 15 36  1  0
 15 37  1  0
 16 38  1  0
 18 39  1  0
 19 40  1  0
 20 41  1  0
M  END
$$$$
