
     RDKit          3D

 43 44  0  0  0  0  0  0  0  0999 V2000
    5.1487   -0.4077   -2.2870 C   0  0  0  0  0  0  0  0  0  0  0  0
    3.8566   -0.8064   -1.8467 O   0  0  0  0  0  0  0  0  0  0  0  0
    3.8672   -1.3650   -0.5251 C   0  0  0  0  0  0  0  0  0  0  0  0
    3.7377   -0.2632    0.5315 C   0  0  0  0  0  0  0  0  0  0  0  0
    2.4956    0.4779    0.3732 N   0  0  0  0  0  0  0  0  0  0  0  0
    1.3116   -0.0099    0.8941 C   0  0  0  0  0  0  0  0  0  0  0  0
    1.2892   -0.9953    1.6301 O   0  0  0  0  0  0  0  0  0  0  0  0
    0.0220    0.7668    0.4725 C   0  0  0  0  0  0  0  0  0  0  0  0
   -0.1649    0.6806   -1.0443 C   0  0  0  0  0  0  0  0  0  0  0  0
    0.1051    2.2286    0.9327 C   0  0  0  0  0  0  0  0  0  0  0  0
   -0.3714    2.1815    2.3809 C   0  0  0  0  0  0  0  0  0  0  0  0
   -1.3480    1.0338    2.3799 C   0  0  0  0  0  0  0  0  0  0  0  0
   -2.1565    0.8040    3.2640 O   0  0  0  0  0  0  0  0  0  0  0  0
   -1.1422    0.2944    1.2231 N   0  0  0  0  0  0  0  0  0  0  0  0
   -1.7721   -1.0012    1.0118 C   0  0  0  0  0  0  0  0  0  0  0  0
   -2.9054   -0.9313    0.0149 C   0  0  0  0  0  0  0  0  0  0  0  0
   -2.8800   -1.7104   -1.1518 C   0  0  0  0  0  0  0  0  0  0  0  0
   -3.9287   -1.6474   -2.0719 C   0  0  0  0  0  0  0  0  0  0  0  0
   -5.0177   -0.8098   -1.8341 C   0  0  0  0  0  0  0  0  0  0  0  0
   -5.0555   -0.0415   -0.6726 C   0  0  0  0  0  0  0  0  0  0  0  0
   -6.5339    1.0910   -0.3468 Br  0  0  0  0  0  0  0  0  0  0  0  0
   -4.0125   -0.1009    0.2511 C   0  0  0  0  0  0  0  0  0  0  0  0
    5.8207   -1.2702   -2.3289 H   0  0  0  0  0  0  0  0  0  0  0  0
    5.5651    0.3636   -1.6335 H   0  0  0  0  0  0  0  0  0  0  0  0
    5.0536    0.0065   -3.2944 H   0  0  0  0  0  0  0  0  0  0  0  0
    3.0106   -2.0447   -0.4624 H   0  0  0  0  0  0  0  0  0  0  0  0
    4.7735   -1.9598   -0.3644 H   0  0  0  0  0  0  0  0  0  0  0  0
    3.7771   -0.6982    1.5355 H   0  0  0  0  0  0  0  0  0  0  0  0
    4.5457    0.4679    0.4368 H   0  0  0  0  0  0  0  0  0  0  0  0
    2.4544    1.0880   -0.4332 H   0  0  0  0  0  0  0  0  0  0  0  0
    0.6210    1.2225   -1.5812 H   0  0  0  0  0  0  0  0  0  0  0  0
   -1.1251    1.1081   -1.3537 H   0  0  0  0  0  0  0  0  0  0  0  0
   -0.1316   -0.3586   -1.3890 H   0  0  0  0  0  0  0  0  0  0  0  0
   -0.5875    2.8541    0.3536 H   0  0  0  0  0  0  0  0  0  0  0  0
    1.0995    2.6773    0.8513 H   0  0  0  0  0  0  0  0  0  0  0  0
    0.4469    1.9525    3.0701 H   0  0  0  0  0  0  0  0  0  0  0  0
   -0.8629    3.1129    2.6723 H   0  0  0  0  0  0  0  0  0  0  0  0
   -1.0096   -1.7171    0.6876 H   0  0  0  0  0  0  0  0  0  0  0  0
   -2.1737   -1.3742    1.9616 H   0  0  0  0  0  0  0  0  0  0  0  0
   -2.0400   -2.3725   -1.3527 H   0  0  0  0  0  0  0  0  0  0  0  0
   -3.8975   -2.2541   -2.9735 H   0  0  0  0  0  0  0  0  0  0  0  0
   -5.8302   -0.7669   -2.5541 H   0  0  0  0  0  0  0  0  0  0  0  0
   -4.0550    0.4947    1.1614 H   0  0  0  0  0  0  0  0  0  0  0  0
  1  2  1  0
  2  3  1  0
  3  4  1  0
  4  5  1  0
  5  6  1  0
  6  7  2  0
  6  8  1  0
  8  9  1  0
  8 10  1  0
 10 11  1  0
 11 12  1  0
 12 13  2  0
 12 14  1  0
 14 15  1  0
 15 16  1  0
 16 17  2  0
 17 18  1  0
 18 19  2  0
 19 20  1  0
 20 21  1  0
 20 22  2  0
 14  8  1  0
 22 16  1  0
  1 23  1  0
  1 24  1  0
  1 25  1  0
  3 26  1  0
  3 27  1  0
  4 28  1  0
  4 29  1  0
  5 30  1  0
  9 31  1  0
  9 32  1  0
  9 33  1  0
 10 34  1  0
 10 35  1  0
 11 36  1  0
 11 37  1  0
 15 38  1  0
 15 39  1  0
 17 40  1  0
 18 41  1  0
 19 42  1  0
 22 43  1  0
M  END
$$$$
