
     RDKit          3D

 65 67  0  0  0  0  0  0  0  0999 V2000
    9.3189   -0.9590    0.4922 C   0  0  0  0  0  0  0  0  0  0  0  0
    7.8230   -0.9965    0.2193 C   0  0  0  0  0  0  0  0  0  0  0  0
    7.1292   -2.0746    1.0541 C   0  0  0  0  0  0  0  0  0  0  0  0
    5.6382   -2.2041    0.7432 C   0  0  0  0  0  0  0  0  0  0  0  0
    4.8799   -1.0512    1.1839 N   0  0  0  0  0  0  0  0  0  0  0  0
    4.4701   -0.0581    0.3203 C   0  0  0  0  0  0  0  0  0  0  0  0
    4.7122   -0.0642   -0.8809 O   0  0  0  0  0  0  0  0  0  0  0  0
    3.7302    1.0625    1.0238 C   0  0  0  0  0  0  0  0  0  0  0  0
    3.0314    2.0302    0.0636 C   0  0  0  0  0  0  0  0  0  0  0  0
    1.7476    1.4819   -0.5285 C   0  0  0  0  0  0  0  0  0  0  0  0
    1.5247    1.0753   -1.8067 C   0  0  0  0  0  0  0  0  0  0  0  0
    2.6152    1.1343   -2.8611 C   0  0  0  0  0  0  0  0  0  0  0  0
    0.2661    0.5775   -2.2311 N   0  0  0  0  0  0  0  0  0  0  0  0
    0.0154    0.1315   -3.6095 C   0  0  0  0  0  0  0  0  0  0  0  0
   -0.7989    0.5926   -1.3722 C   0  0  0  0  0  0  0  0  0  0  0  0
   -2.1346    0.2783   -1.4687 C   0  0  0  0  0  0  0  0  0  0  0  0
   -2.6896    0.5125   -0.1791 C   0  0  0  0  0  0  0  0  0  0  0  0
   -4.0812    0.3363    0.2643 C   0  0  0  0  0  0  0  0  0  0  0  0
   -4.4777    0.8026    1.5316 C   0  0  0  0  0  0  0  0  0  0  0  0
   -5.7917    0.6496    1.9798 C   0  0  0  0  0  0  0  0  0  0  0  0
   -6.2612    1.0781    3.1948 O   0  0  0  0  0  0  0  0  0  0  0  0
   -5.3651    1.8122    4.0189 C   0  0  0  0  0  0  0  0  0  0  0  0
   -6.7175    0.0038    1.1458 C   0  0  0  0  0  0  0  0  0  0  0  0
   -8.0284   -0.1186    1.5531 O   0  0  0  0  0  0  0  0  0  0  0  0
   -8.1962   -1.3343    2.2803 C   0  0  0  0  0  0  0  0  0  0  0  0
   -6.3535   -0.4518   -0.1319 C   0  0  0  0  0  0  0  0  0  0  0  0
   -7.3433   -1.0548   -0.8655 O   0  0  0  0  0  0  0  0  0  0  0  0
   -7.0842   -1.2964   -2.2410 C   0  0  0  0  0  0  0  0  0  0  0  0
   -5.0313   -0.2920   -0.5582 C   0  0  0  0  0  0  0  0  0  0  0  0
   -1.7431    0.9503    0.6655 N   0  0  0  0  0  0  0  0  0  0  0  0
   -0.6067    1.0068   -0.0754 N   0  0  0  0  0  0  0  0  0  0  0  0
    0.6091    1.4489    0.4537 C   0  0  0  0  0  0  0  0  0  0  0  0
    0.7084    1.7876    1.6284 O   0  0  0  0  0  0  0  0  0  0  0  0
    9.7877   -1.9167    0.2445 H   0  0  0  0  0  0  0  0  0  0  0  0
    9.7949   -0.1815   -0.1139 H   0  0  0  0  0  0  0  0  0  0  0  0
    9.5199   -0.7392    1.5458 H   0  0  0  0  0  0  0  0  0  0  0  0
    7.6576   -1.1870   -0.8474 H   0  0  0  0  0  0  0  0  0  0  0  0
    7.3999   -0.0118    0.4449 H   0  0  0  0  0  0  0  0  0  0  0  0
    7.6077   -3.0416    0.8577 H   0  0  0  0  0  0  0  0  0  0  0  0
    7.2681   -1.8580    2.1206 H   0  0  0  0  0  0  0  0  0  0  0  0
    5.2292   -3.0662    1.2801 H   0  0  0  0  0  0  0  0  0  0  0  0
    5.4809   -2.3723   -0.3274 H   0  0  0  0  0  0  0  0  0  0  0  0
    4.6730   -0.9623    2.1711 H   0  0  0  0  0  0  0  0  0  0  0  0
    4.4781    1.6212    1.6004 H   0  0  0  0  0  0  0  0  0  0  0  0
    3.0223    0.6290    1.7386 H   0  0  0  0  0  0  0  0  0  0  0  0
    3.7356    2.3645   -0.7019 H   0  0  0  0  0  0  0  0  0  0  0  0
    2.7849    2.9466    0.6173 H   0  0  0  0  0  0  0  0  0  0  0  0
    3.5110    1.6752   -2.5565 H   0  0  0  0  0  0  0  0  0  0  0  0
    2.2507    1.6496   -3.7566 H   0  0  0  0  0  0  0  0  0  0  0  0
    2.9265    0.1220   -3.1396 H   0  0  0  0  0  0  0  0  0  0  0  0
    0.8731   -0.4108   -4.0206 H   0  0  0  0  0  0  0  0  0  0  0  0
   -0.1960    0.9938   -4.2504 H   0  0  0  0  0  0  0  0  0  0  0  0
   -0.8282   -0.5637   -3.6782 H   0  0  0  0  0  0  0  0  0  0  0  0
   -2.6504   -0.0696   -2.3503 H   0  0  0  0  0  0  0  0  0  0  0  0
   -3.7327    1.2882    2.1562 H   0  0  0  0  0  0  0  0  0  0  0  0
   -4.5216    1.1900    4.3349 H   0  0  0  0  0  0  0  0  0  0  0  0
   -5.0215    2.7238    3.5187 H   0  0  0  0  0  0  0  0  0  0  0  0
   -5.9102    2.1126    4.9190 H   0  0  0  0  0  0  0  0  0  0  0  0
   -7.9559   -2.2064    1.6620 H   0  0  0  0  0  0  0  0  0  0  0  0
   -7.5934   -1.3410    3.1949 H   0  0  0  0  0  0  0  0  0  0  0  0
   -9.2487   -1.4070    2.5704 H   0  0  0  0  0  0  0  0  0  0  0  0
   -8.0118   -1.6538   -2.6983 H   0  0  0  0  0  0  0  0  0  0  0  0
   -6.7894   -0.3782   -2.7599 H   0  0  0  0  0  0  0  0  0  0  0  0
   -6.3297   -2.0799   -2.3645 H   0  0  0  0  0  0  0  0  0  0  0  0
   -4.7273   -0.6664   -1.5279 H   0  0  0  0  0  0  0  0  0  0  0  0
  1  2  1  0
  2  3  1  0
  3  4  1  0
  4  5  1  0
  5  6  1  0
  6  7  2  0
  6  8  1  0
  8  9  1  0
  9 10  1  0
 10 11  2  0
 11 12  1  0
 11 13  1  0
 13 14  1  0
 13 15  1  0
 15 16  2  0
 16 17  1  0
 17 18  1  0
 18 19  2  0
 19 20  1  0
 20 21  1  0
 21 22  1  0
 20 23  2  0
 23 24  1  0
 24 25  1  0
 23 26  1  0
 26 27  1  0
 27 28  1  0
 26 29  2  0
 17 30  2  0
 30 31  1  0
 31 32  1  0
 32 33  2  0
 32 10  1  0
 31 15  1  0
 29 18  1  0
  1 34  1  0
  1 35  1  0
  1 36  1  0
  2 37  1  0
  2 38  1  0
  3 39  1  0
  3 40  1  0
  4 41  1  0
  4 42  1  0
  5 43  1  0
  8 44  1  0
  8 45  1  0
  9 46  1  0
  9 47  1  0
 12 48  1  0
 12 49  1  0
 12 50  1  0
 14 51  1  0
 14 52  1  0
 14 53  1  0
 16 54  1  0
 19 55  1  0
 22 56  1  0
 22 57  1  0
 22 58  1  0
 25 59  1  0
 25 60  1  0
 25 61  1  0
 28 62  1  0
 28 63  1  0
 28 64  1  0
 29 65  1  0
M  END
$$$$
