
     RDKit          3D

 43 45  0  0  0  0  0  0  0  0999 V2000
    7.9434   -0.2658   -1.4377 C   0  0  0  0  0  0  0  0  0  0  0  0
    7.2672   -1.2518   -0.6680 O   0  0  0  0  0  0  0  0  0  0  0  0
    5.9460   -1.0217   -0.3846 C   0  0  0  0  0  0  0  0  0  0  0  0
    5.3401   -2.0308    0.3743 C   0  0  0  0  0  0  0  0  0  0  0  0
    3.9923   -1.9554    0.7525 C   0  0  0  0  0  0  0  0  0  0  0  0
    3.2496   -0.8375    0.3535 C   0  0  0  0  0  0  0  0  0  0  0  0
    1.9305   -0.5301    0.5882 N   0  0  0  0  0  0  0  0  0  0  0  0
    1.7432    0.6278   -0.0059 C   0  0  0  0  0  0  0  0  0  0  0  0
    0.1920    1.5424   -0.0372 S   0  0  0  0  0  4  0  0  0  0  0  0
    0.3975    2.5971   -1.0889 O   0  0  0  0  0  0  0  0  0  0  0  0
   -0.8248    0.1930   -0.7132 C   0  0  0  0  0  0  0  0  0  0  0  0
   -2.2984    0.4793   -0.5657 C   0  0  0  0  0  0  0  0  0  0  0  0
   -2.8921    1.0316   -1.6556 N   0  0  0  0  0  0  0  0  0  0  0  0
   -4.2024    1.3456   -1.5807 C   0  0  0  0  0  0  0  0  0  0  0  0
   -4.9956    1.1117   -0.4712 C   0  0  0  0  0  0  0  0  0  0  0  0
   -6.4436    1.4874   -0.4798 C   0  0  0  0  0  0  0  0  0  0  0  0
   -4.3835    0.4766    0.6117 C   0  0  0  0  0  0  0  0  0  0  0  0
   -5.1369    0.1943    1.7261 O   0  0  0  0  0  0  0  0  0  0  0  0
   -5.6830   -1.1237    1.6346 C   0  0  0  0  0  0  0  0  0  0  0  0
   -3.0075    0.1933    0.6106 C   0  0  0  0  0  0  0  0  0  0  0  0
   -2.3469   -0.4396    1.8034 C   0  0  0  0  0  0  0  0  0  0  0  0
    2.8829    1.0802   -0.6115 N   0  0  0  0  0  0  0  0  0  0  0  0
    3.8707    0.1548   -0.3990 C   0  0  0  0  0  0  0  0  0  0  0  0
    5.2141    0.1023   -0.7898 C   0  0  0  0  0  0  0  0  0  0  0  0
    7.4934   -0.1630   -2.4307 H   0  0  0  0  0  0  0  0  0  0  0  0
    7.9696    0.6950   -0.9131 H   0  0  0  0  0  0  0  0  0  0  0  0
    8.9769   -0.5987   -1.5737 H   0  0  0  0  0  0  0  0  0  0  0  0
    5.9273   -2.8949    0.6786 H   0  0  0  0  0  0  0  0  0  0  0  0
    3.5312   -2.7413    1.3398 H   0  0  0  0  0  0  0  0  0  0  0  0
   -0.5674    0.0765   -1.7722 H   0  0  0  0  0  0  0  0  0  0  0  0
   -0.5800   -0.7511   -0.2168 H   0  0  0  0  0  0  0  0  0  0  0  0
   -4.6054    1.8111   -2.4766 H   0  0  0  0  0  0  0  0  0  0  0  0
   -6.7613    1.8535    0.5018 H   0  0  0  0  0  0  0  0  0  0  0  0
   -6.6367    2.2925   -1.1971 H   0  0  0  0  0  0  0  0  0  0  0  0
   -7.0568    0.6246   -0.7567 H   0  0  0  0  0  0  0  0  0  0  0  0
   -6.3483   -1.2222    0.7705 H   0  0  0  0  0  0  0  0  0  0  0  0
   -6.2734   -1.3031    2.5380 H   0  0  0  0  0  0  0  0  0  0  0  0
   -4.8933   -1.8813    1.5907 H   0  0  0  0  0  0  0  0  0  0  0  0
   -2.1948   -1.5082    1.6226 H   0  0  0  0  0  0  0  0  0  0  0  0
   -1.3827    0.0288    2.0193 H   0  0  0  0  0  0  0  0  0  0  0  0
   -2.9446   -0.3278    2.7134 H   0  0  0  0  0  0  0  0  0  0  0  0
    2.9481    1.9446   -1.1317 H   0  0  0  0  0  0  0  0  0  0  0  0
    5.6435    0.9043   -1.3762 H   0  0  0  0  0  0  0  0  0  0  0  0
  1  2  1  0
  2  3  1  0
  3  4  2  0
  4  5  1  0
  5  6  2  0
  6  7  1  0
  7  8  2  0
  8  9  1  0
  9 10  2  0
  9 11  1  0
 11 12  1  0
 12 13  2  0
 13 14  1  0
 14 15  2  0
 15 16  1  0
 15 17  1  0
 17 18  1  0
 18 19  1  0
 17 20  2  0
 20 21  1  0
  8 22  1  0
 22 23  1  0
 23 24  2  0
 24  3  1  0
 23  6  1  0
 20 12  1  0
  1 25  1  0
  1 26  1  0
  1 27  1  0
  4 28  1  0
  5 29  1  0
 11 30  1  0
 11 31  1  0
 14 32  1  0
 16 33  1  0
 16 34  1  0
 16 35  1  0
 19 36  1  0
 19 37  1  0
 19 38  1  0
 21 39  1  0
 21 40  1  0
 21 41  1  0
 22 42  1  0
 24 43  1  0
M  END
$$$$
