
     RDKit          3D

 25 27  0  0  0  0  0  0  0  0999 V2000
    0.0327   -1.8688    0.0633 O   0  0  0  0  0  0  0  0  0  0  0  0
   -0.5233   -0.6504   -0.0601 C   0  0  0  0  0  0  0  0  0  0  0  0
   -1.8008   -0.4903   -0.0791 C   0  0  0  0  0  0  0  0  0  0  0  0
   -2.8126   -1.5162    0.0213 C   0  0  0  0  0  0  0  0  0  0  0  0
   -4.1270   -1.2344   -0.0100 C   0  0  0  0  0  0  0  0  0  0  0  0
   -4.6282    0.0250   -0.1374 C   0  0  0  0  0  0  0  0  0  0  0  0
   -3.6961    1.0805   -0.2410 C   0  0  0  0  0  0  0  0  0  0  0  0
   -2.4193    0.8134   -0.2112 C   0  0  0  0  0  0  0  0  0  0  0  0
   -0.7355    1.8269   -0.3088 Se  0  0  0  0  0  2  0  0  0  0  0  0
    0.4051    0.3959   -0.1628 N   0  0  0  0  0  0  0  0  0  0  0  0
    1.7744    0.3867   -0.1586 C   0  0  0  0  0  0  0  0  0  0  0  0
    2.5384    0.9346   -1.1985 C   0  0  0  0  0  0  0  0  0  0  0  0
    3.9078    0.8793   -1.1076 C   0  0  0  0  0  0  0  0  0  0  0  0
    4.5930    0.3185   -0.0576 C   0  0  0  0  0  0  0  0  0  0  0  0
    3.8369   -0.2166    0.9581 C   0  0  0  0  0  0  0  0  0  0  0  0
    2.4557   -0.1838    0.9097 C   0  0  0  0  0  0  0  0  0  0  0  0
   -2.4283   -2.5081    0.1216 H   0  0  0  0  0  0  0  0  0  0  0  0
   -4.8843   -2.0313    0.0681 H   0  0  0  0  0  0  0  0  0  0  0  0
   -5.6753    0.2707   -0.1645 H   0  0  0  0  0  0  0  0  0  0  0  0
   -4.0834    2.1040   -0.3445 H   0  0  0  0  0  0  0  0  0  0  0  0
    1.9877    1.3669   -2.0077 H   0  0  0  0  0  0  0  0  0  0  0  0
    4.5003    1.3104   -1.9257 H   0  0  0  0  0  0  0  0  0  0  0  0
    5.6710    0.2780    0.0084 H   0  0  0  0  0  0  0  0  0  0  0  0
    4.2668   -0.6867    1.8397 H   0  0  0  0  0  0  0  0  0  0  0  0
    1.8442   -0.6043    1.7081 H   0  0  0  0  0  0  0  0  0  0  0  0
  1  2  2  0
  2  3  1  0
  3  4  2  0
  4  5  1  0
  5  6  2  0
  6  7  1  0
  7  8  2  0
  8  9  1  0
  9 10  1  0
 10 11  1  0
 11 12  2  0
 12 13  1  0
 13 14  2  0
 14 15  1  0
 15 16  2  0
 10  2  1  0
 16 11  1  0
  8  3  1  0
  4 17  1  0
  5 18  1  0
  6 19  1  0
  7 20  1  0
 12 21  1  0
 13 22  1  0
 14 23  1  0
 15 24  1  0
 16 25  1  0
M  END
$$$$
