
     RDKit          3D

 51 54  0  0  0  0  0  0  0  0999 V2000
    4.8877    3.9588    0.0688 C   0  0  0  0  0  0  0  0  0  0  0  0
    4.7530    2.8354    1.4853 S   0  0  0  0  0  0  0  0  0  0  0  0
    4.0173    1.4152    0.6928 C   0  0  0  0  0  0  0  0  0  0  0  0
    4.6031    0.8093   -0.4142 C   0  0  0  0  0  0  0  0  0  0  0  0
    4.0070   -0.3132   -0.9863 C   0  0  0  0  0  0  0  0  0  0  0  0
    2.8204   -0.8465   -0.4575 C   0  0  0  0  0  0  0  0  0  0  0  0
    2.2025   -0.2494    0.6579 C   0  0  0  0  0  0  0  0  0  0  0  0
    2.8405    0.8734    1.2276 C   0  0  0  0  0  0  0  0  0  0  0  0
    1.0094   -0.7785    1.2217 N   0  0  0  0  0  0  0  0  0  0  0  0
   -0.0073    0.2128    1.6660 C   0  0  0  0  0  0  0  0  0  0  0  0
   -0.5565    1.0783    0.5168 C   0  0  0  0  0  0  0  0  0  0  0  0
   -1.4893    0.3218   -0.4573 C   0  0  0  0  0  0  0  0  0  0  0  0
   -1.8563    1.2039   -1.6696 C   0  0  0  0  0  0  0  0  0  0  0  0
   -2.8726    2.2883   -1.3291 C   0  0  0  0  0  0  0  0  0  0  0  0
   -4.0896    1.6826   -0.6430 C   0  0  0  0  0  0  0  0  0  0  0  0
   -3.6811    0.8213    0.5516 C   0  0  0  0  0  0  0  0  0  0  0  0
   -2.6794   -0.2081    0.2437 N   0  0  0  0  0  0  0  0  0  0  0  0
   -3.2684   -1.3399   -0.4740 C   0  0  0  0  0  0  0  0  0  0  0  0
    0.5436   -2.1031    1.0056 C   0  0  0  0  0  0  0  0  0  0  0  0
   -0.3427   -2.7202    1.9115 C   0  0  0  0  0  0  0  0  0  0  0  0
   -0.8020   -4.0280    1.7245 C   0  0  0  0  0  0  0  0  0  0  0  0
   -0.3725   -4.7632    0.6294 C   0  0  0  0  0  0  0  0  0  0  0  0
    0.5264   -4.1924   -0.2670 C   0  0  0  0  0  0  0  0  0  0  0  0
    0.9949   -2.8799   -0.0799 C   0  0  0  0  0  0  0  0  0  0  0  0
    2.1324   -2.2559   -1.3011 S   0  0  0  0  0  0  0  0  0  0  0  0
    3.9191    4.0716   -0.4266 H   0  0  0  0  0  0  0  0  0  0  0  0
    5.6252    3.5944   -0.6506 H   0  0  0  0  0  0  0  0  0  0  0  0
    5.2119    4.9408    0.4235 H   0  0  0  0  0  0  0  0  0  0  0  0
    5.5331    1.1838   -0.8323 H   0  0  0  0  0  0  0  0  0  0  0  0
    4.4796   -0.7769   -1.8498 H   0  0  0  0  0  0  0  0  0  0  0  0
    2.4361    1.3292    2.1267 H   0  0  0  0  0  0  0  0  0  0  0  0
   -0.8489   -0.2436    2.1947 H   0  0  0  0  0  0  0  0  0  0  0  0
    0.4313    0.8729    2.4230 H   0  0  0  0  0  0  0  0  0  0  0  0
    0.2707    1.5198   -0.0515 H   0  0  0  0  0  0  0  0  0  0  0  0
   -1.0876    1.9274    0.9635 H   0  0  0  0  0  0  0  0  0  0  0  0
   -0.9049   -0.5174   -0.8529 H   0  0  0  0  0  0  0  0  0  0  0  0
   -0.9546    1.6666   -2.0884 H   0  0  0  0  0  0  0  0  0  0  0  0
   -2.2700    0.5709   -2.4650 H   0  0  0  0  0  0  0  0  0  0  0  0
   -2.4145    3.0398   -0.6756 H   0  0  0  0  0  0  0  0  0  0  0  0
   -3.1811    2.8094   -2.2423 H   0  0  0  0  0  0  0  0  0  0  0  0
   -4.6575    1.0818   -1.3633 H   0  0  0  0  0  0  0  0  0  0  0  0
   -4.7577    2.4839   -0.3070 H   0  0  0  0  0  0  0  0  0  0  0  0
   -4.5737    0.3596    0.9925 H   0  0  0  0  0  0  0  0  0  0  0  0
   -3.2850    1.4732    1.3399 H   0  0  0  0  0  0  0  0  0  0  0  0
   -4.0879   -1.7766    0.1076 H   0  0  0  0  0  0  0  0  0  0  0  0
   -2.5297   -2.1377   -0.6087 H   0  0  0  0  0  0  0  0  0  0  0  0
   -3.6575   -1.0673   -1.4601 H   0  0  0  0  0  0  0  0  0  0  0  0
   -0.6713   -2.2006    2.8071 H   0  0  0  0  0  0  0  0  0  0  0  0
   -1.4874   -4.4681    2.4440 H   0  0  0  0  0  0  0  0  0  0  0  0
   -0.7243   -5.7798    0.4783 H   0  0  0  0  0  0  0  0  0  0  0  0
    0.8663   -4.7800   -1.1170 H   0  0  0  0  0  0  0  0  0  0  0  0
  1  2  1  0
  2  3  1  0
  3  4  2  0
  4  5  1  0
  5  6  2  0
  6  7  1  0
  7  8  2  0
  7  9  1  0
  9 10  1  0
 10 11  1  0
 11 12  1  0
 12 13  1  0
 13 14  1  0
 14 15  1  0
 15 16  1  0
 16 17  1  0
 17 18  1  0
  9 19  1  0
 19 20  2  0
 20 21  1  0
 21 22  2  0
 22 23  1  0
 23 24  2  0
 24 25  1  0
  8  3  1  0
 17 12  1  0
 24 19  1  0
 25  6  1  0
  1 26  1  0
  1 27  1  0
  1 28  1  0
  4 29  1  0
  5 30  1  0
  8 31  1  0
 10 32  1  0
 10 33  1  0
 11 34  1  0
 11 35  1  0
 12 36  1  0
 13 37  1  0
 13 38  1  0
 14 39  1  0
 14 40  1  0
 15 41  1  0
 15 42  1  0
 16 43  1  0
 16 44  1  0
 18 45  1  0
 18 46  1  0
 18 47  1  0
 20 48  1  0
 21 49  1  0
 22 50  1  0
 23 51  1  0
M  END
$$$$
