
     RDKit          3D

 35 36  0  0  0  0  0  0  0  0999 V2000
    5.2440   -1.6273    0.3331 C   0  0  0  0  0  0  0  0  0  0  0  0
    5.0317   -0.3626   -0.2794 O   0  0  0  0  0  0  0  0  0  0  0  0
    3.9253    0.3542    0.2646 C   0  0  0  0  0  0  0  0  0  0  0  0
    2.5776   -0.1952   -0.2057 C   0  0  0  0  0  0  0  0  0  0  0  0
    1.4621    0.6261    0.2300 N   0  0  0  0  0  0  0  0  0  0  0  0
    0.2082    0.4467   -0.3220 C   0  0  0  0  0  0  0  0  0  0  0  0
   -0.0011   -0.3375   -1.2396 O   0  0  0  0  0  0  0  0  0  0  0  0
   -0.8463    1.2205    0.3003 C   0  0  0  0  0  0  0  0  0  0  0  0
   -2.2292    0.8876    0.4671 C   0  0  0  0  0  0  0  0  0  0  0  0
   -2.9519   -0.3342    0.1100 C   0  0  0  0  0  0  0  0  0  0  0  0
   -2.3908   -1.6018    0.3215 C   0  0  0  0  0  0  0  0  0  0  0  0
   -3.0997   -2.7590   -0.0142 C   0  0  0  0  0  0  0  0  0  0  0  0
   -4.3797   -2.6617   -0.5571 C   0  0  0  0  0  0  0  0  0  0  0  0
   -4.9471   -1.4059   -0.7599 C   0  0  0  0  0  0  0  0  0  0  0  0
   -6.6859   -1.2723   -1.4911 Br  0  0  0  0  0  0  0  0  0  0  0  0
   -4.2450   -0.2470   -0.4284 C   0  0  0  0  0  0  0  0  0  0  0  0
   -2.8825    1.8975    1.0670 N   0  0  0  0  0  0  0  0  0  0  0  0
   -1.9599    2.8917    1.2803 O   0  0  0  0  0  0  0  0  0  0  0  0
   -0.7496    2.5012    0.8115 C   0  0  0  0  0  0  0  0  0  0  0  0
    0.3264    3.5069    0.9179 C   0  0  0  0  0  0  0  0  0  0  0  0
    5.3763   -1.5163    1.4135 H   0  0  0  0  0  0  0  0  0  0  0  0
    6.1568   -2.0601   -0.0854 H   0  0  0  0  0  0  0  0  0  0  0  0
    4.4150   -2.3076    0.1210 H   0  0  0  0  0  0  0  0  0  0  0  0
    4.0249    1.3921   -0.0736 H   0  0  0  0  0  0  0  0  0  0  0  0
    3.9862    0.3748    1.3595 H   0  0  0  0  0  0  0  0  0  0  0  0
    2.5639   -0.2757   -1.2989 H   0  0  0  0  0  0  0  0  0  0  0  0
    2.4107   -1.2049    0.1846 H   0  0  0  0  0  0  0  0  0  0  0  0
    1.5049    1.0337    1.1544 H   0  0  0  0  0  0  0  0  0  0  0  0
   -1.3976   -1.7085    0.7498 H   0  0  0  0  0  0  0  0  0  0  0  0
   -2.6507   -3.7360    0.1467 H   0  0  0  0  0  0  0  0  0  0  0  0
   -4.9238   -3.5657   -0.8170 H   0  0  0  0  0  0  0  0  0  0  0  0
   -4.7009    0.7277   -0.5904 H   0  0  0  0  0  0  0  0  0  0  0  0
    0.9537    3.3034    1.7909 H   0  0  0  0  0  0  0  0  0  0  0  0
   -0.0849    4.5159    1.0236 H   0  0  0  0  0  0  0  0  0  0  0  0
    0.9589    3.4989    0.0250 H   0  0  0  0  0  0  0  0  0  0  0  0
  1  2  1  0
  2  3  1  0
  3  4  1  0
  4  5  1  0
  5  6  1  0
  6  7  2  0
  6  8  1  0
  8  9  1  0
  9 10  1  0
 10 11  2  0
 11 12  1  0
 12 13  2  0
 13 14  1  0
 14 15  1  0
 14 16  2  0
  9 17  2  0
 17 18  1  0
 18 19  1  0
 19 20  1  0
 19  8  2  0
 16 10  1  0
  1 21  1  0
  1 22  1  0
  1 23  1  0
  3 24  1  0
  3 25  1  0
  4 26  1  0
  4 27  1  0
  5 28  1  0
 11 29  1  0
 12 30  1  0
 13 31  1  0
 16 32  1  0
 20 33  1  0
 20 34  1  0
 20 35  1  0
M  END
$$$$
