
     RDKit          3D

 65 68  0  0  0  0  0  0  0  0999 V2000
   -9.8604    0.2174   -1.2624 C   0  0  0  0  0  0  0  0  0  0  0  0
   -8.9339    1.1958   -0.8136 O   0  0  0  0  0  0  0  0  0  0  0  0
   -7.6907    0.7624   -0.4221 C   0  0  0  0  0  0  0  0  0  0  0  0
   -7.2291   -0.5486   -0.5678 C   0  0  0  0  0  0  0  0  0  0  0  0
   -5.9448   -0.8989   -0.1371 C   0  0  0  0  0  0  0  0  0  0  0  0
   -5.1013    0.0522    0.4449 C   0  0  0  0  0  0  0  0  0  0  0  0
   -3.7839   -0.3090    0.9497 C   0  0  0  0  0  0  0  0  0  0  0  0
   -3.1085    0.1589    2.0940 C   0  0  0  0  0  0  0  0  0  0  0  0
   -1.9064   -0.3873    2.2607 N   0  0  0  0  0  0  0  0  0  0  0  0
   -1.7727   -1.2563    1.2146 N   0  0  0  0  0  0  0  0  0  0  0  0
   -0.6932   -2.1280    0.9287 C   0  0  0  0  0  0  0  0  0  0  0  0
    0.6283   -2.2002    2.0744 S   0  0  0  0  0  0  0  0  0  0  0  0
    2.0579   -2.7802    1.1351 C   0  0  0  0  0  0  0  0  0  0  0  0
    2.4384   -1.8119    0.0334 C   0  0  0  0  0  0  0  0  0  0  0  0
    2.2000   -2.0495   -1.1478 O   0  0  0  0  0  0  0  0  0  0  0  0
    3.0946   -0.6796    0.4676 N   0  0  0  0  0  0  0  0  0  0  0  0
    3.4886    0.3818   -0.4375 C   0  0  0  0  0  0  0  0  0  0  0  0
    4.7057    0.0287   -1.2938 C   0  0  0  0  0  0  0  0  0  0  0  0
    5.9937   -0.2137   -0.4925 C   0  0  0  0  0  0  0  0  0  0  0  0
    6.4599    0.9436    0.2909 N   0  0  0  0  0  0  0  0  0  0  0  0
    6.7755    2.1050   -0.5735 C   0  0  0  0  0  0  0  0  0  0  0  0
    7.8193    3.0386    0.0632 C   0  0  0  0  0  0  0  0  0  0  0  0
    9.0923    2.3985    0.2417 O   0  0  0  0  0  0  0  0  0  0  0  0
    8.9783    0.9895    0.4881 C   0  0  0  0  0  0  0  0  0  0  0  0
    7.6346    0.5984    1.1267 C   0  0  0  0  0  0  0  0  0  0  0  0
   -0.7600   -2.8969   -0.1715 C   0  0  0  0  0  0  0  0  0  0  0  0
   -1.9689   -2.7326   -1.0358 C   0  0  0  0  0  0  0  0  0  0  0  0
   -2.0214   -3.5457   -2.3068 C   0  0  0  0  0  0  0  0  0  0  0  0
   -2.9798   -1.9580   -0.7705 N   0  0  0  0  0  0  0  0  0  0  0  0
   -2.9026   -1.2094    0.3740 C   0  0  0  0  0  0  0  0  0  0  0  0
   -5.5626    1.3705    0.5816 C   0  0  0  0  0  0  0  0  0  0  0  0
   -6.8456    1.7334    0.1502 C   0  0  0  0  0  0  0  0  0  0  0  0
   -7.3723    2.9963    0.2720 O   0  0  0  0  0  0  0  0  0  0  0  0
   -6.4893    4.0488    0.6300 C   0  0  0  0  0  0  0  0  0  0  0  0
   -9.5112   -0.2631   -2.1812 H   0  0  0  0  0  0  0  0  0  0  0  0
  -10.8003    0.7266   -1.4974 H   0  0  0  0  0  0  0  0  0  0  0  0
  -10.0683   -0.5173   -0.4788 H   0  0  0  0  0  0  0  0  0  0  0  0
   -7.8424   -1.3268   -1.0107 H   0  0  0  0  0  0  0  0  0  0  0  0
   -5.6177   -1.9295   -0.2549 H   0  0  0  0  0  0  0  0  0  0  0  0
   -3.4507    0.8808    2.8246 H   0  0  0  0  0  0  0  0  0  0  0  0
    1.8835   -3.7742    0.7133 H   0  0  0  0  0  0  0  0  0  0  0  0
    2.9075   -2.8793    1.8202 H   0  0  0  0  0  0  0  0  0  0  0  0
    3.0947   -0.4730    1.4630 H   0  0  0  0  0  0  0  0  0  0  0  0
    3.6725    1.2763    0.1677 H   0  0  0  0  0  0  0  0  0  0  0  0
    2.6375    0.5965   -1.0943 H   0  0  0  0  0  0  0  0  0  0  0  0
    4.8629    0.8267   -2.0287 H   0  0  0  0  0  0  0  0  0  0  0  0
    4.4960   -0.8773   -1.8767 H   0  0  0  0  0  0  0  0  0  0  0  0
    5.8077   -1.0559    0.1871 H   0  0  0  0  0  0  0  0  0  0  0  0
    6.7795   -0.5457   -1.1853 H   0  0  0  0  0  0  0  0  0  0  0  0
    5.8566    2.6730   -0.7670 H   0  0  0  0  0  0  0  0  0  0  0  0
    7.1773    1.7623   -1.5390 H   0  0  0  0  0  0  0  0  0  0  0  0
    7.9796    3.9139   -0.5742 H   0  0  0  0  0  0  0  0  0  0  0  0
    7.4742    3.4043    1.0395 H   0  0  0  0  0  0  0  0  0  0  0  0
    9.1241    0.4643   -0.4651 H   0  0  0  0  0  0  0  0  0  0  0  0
    9.8071    0.7062    1.1454 H   0  0  0  0  0  0  0  0  0  0  0  0
    7.6413   -0.4627    1.3958 H   0  0  0  0  0  0  0  0  0  0  0  0
    7.5319    1.1543    2.0672 H   0  0  0  0  0  0  0  0  0  0  0  0
   -0.0116   -3.6119   -0.4809 H   0  0  0  0  0  0  0  0  0  0  0  0
   -1.0669   -4.0411   -2.5058 H   0  0  0  0  0  0  0  0  0  0  0  0
   -2.2538   -2.8867   -3.1486 H   0  0  0  0  0  0  0  0  0  0  0  0
   -2.8059   -4.3044   -2.2174 H   0  0  0  0  0  0  0  0  0  0  0  0
   -4.9044    2.1076    1.0299 H   0  0  0  0  0  0  0  0  0  0  0  0
   -5.6640    4.1383   -0.0839 H   0  0  0  0  0  0  0  0  0  0  0  0
   -6.1203    3.9177    1.6506 H   0  0  0  0  0  0  0  0  0  0  0  0
   -7.0565    4.9861    0.5972 H   0  0  0  0  0  0  0  0  0  0  0  0
  1  2  1  0
  2  3  1  0
  3  4  2  0
  4  5  1  0
  5  6  2  0
  6  7  1  0
  7  8  1  0
  8  9  2  0
  9 10  1  0
 10 11  1  0
 11 12  1  0
 12 13  1  0
 13 14  1  0
 14 15  2  0
 14 16  1  0
 16 17  1  0
 17 18  1  0
 18 19  1  0
 19 20  1  0
 20 21  1  0
 21 22  1  0
 22 23  1  0
 23 24  1  0
 24 25  1  0
 11 26  2  0
 26 27  1  0
 27 28  1  0
 27 29  2  0
 29 30  1  0
  6 31  1  0
 31 32  2  0
 32 33  1  0
 33 34  1  0
 32  3  1  0
 30  7  2  0
 30 10  1  0
 25 20  1  0
  1 35  1  0
  1 36  1  0
  1 37  1  0
  4 38  1  0
  5 39  1  0
  8 40  1  0
 13 41  1  0
 13 42  1  0
 16 43  1  0
 17 44  1  0
 17 45  1  0
 18 46  1  0
 18 47  1  0
 19 48  1  0
 19 49  1  0
 21 50  1  0
 21 51  1  0
 22 52  1  0
 22 53  1  0
 24 54  1  0
 24 55  1  0
 25 56  1  0
 25 57  1  0
 26 58  1  0
 28 59  1  0
 28 60  1  0
 28 61  1  0
 31 62  1  0
 34 63  1  0
 34 64  1  0
 34 65  1  0
M  END
$$$$
