
     RDKit          3D

 58 61  0  0  0  0  0  0  0  0999 V2000
   -0.8426   -0.8756   -2.9616 C   0  0  0  0  0  0  0  0  0  0  0  0
   -1.4729   -1.9938   -2.1473 C   0  0  0  0  0  0  0  0  0  0  0  0
   -2.1549   -1.4543   -0.9226 C   0  0  0  0  0  0  0  0  0  0  0  0
   -1.4534   -1.3970    0.2127 N   0  0  0  0  0  0  0  0  0  0  0  0
   -2.0644   -0.8737    1.3021 C   0  0  0  0  0  0  0  0  0  0  0  0
   -0.9689   -0.8744    2.7107 S   0  0  0  0  0  0  0  0  0  0  0  0
   -0.5118    0.8880    2.7379 C   0  0  0  0  0  0  0  0  0  0  0  0
   -0.0266    1.3696    1.3780 C   0  0  0  0  0  0  0  0  0  0  0  0
   -0.8071    1.9874    0.6449 O   0  0  0  0  0  0  0  0  0  0  0  0
    1.2784    1.1026    0.9958 N   0  0  0  0  0  0  0  0  0  0  0  0
    2.2419    0.3121    1.7730 C   0  0  0  0  0  0  0  0  0  0  0  0
    3.7049    0.5261    1.3353 C   0  0  0  0  0  0  0  0  0  0  0  0
    3.8812    0.2852   -0.1050 N   0  0  0  0  0  0  0  0  0  0  0  0
    5.1049   -0.1012   -0.6300 C   0  0  0  0  0  0  0  0  0  0  0  0
    5.2100   -0.7230   -1.8859 C   0  0  0  0  0  0  0  0  0  0  0  0
    6.4440   -1.1165   -2.4209 C   0  0  0  0  0  0  0  0  0  0  0  0
    7.6156   -0.8954   -1.7077 C   0  0  0  0  0  0  0  0  0  0  0  0
    7.5482   -0.2836   -0.4623 C   0  0  0  0  0  0  0  0  0  0  0  0
    6.3093    0.1048    0.0642 C   0  0  0  0  0  0  0  0  0  0  0  0
    2.7128    0.5065   -0.9740 C   0  0  0  0  0  0  0  0  0  0  0  0
    1.7172    1.4994   -0.3455 C   0  0  0  0  0  0  0  0  0  0  0  0
   -3.3749   -0.4199    1.2746 C   0  0  0  0  0  0  0  0  0  0  0  0
   -4.1162    0.1387    2.4134 C   0  0  0  0  0  0  0  0  0  0  0  0
   -3.5699    0.3140    3.4981 O   0  0  0  0  0  0  0  0  0  0  0  0
   -5.4497    0.4653    2.1977 N   0  0  0  0  0  0  0  0  0  0  0  0
   -6.2064    1.0088    3.3133 C   0  0  0  0  0  0  0  0  0  0  0  0
   -6.0798    0.4396    0.9624 C   0  0  0  0  0  0  0  0  0  0  0  0
   -7.2294    0.8590    0.8155 O   0  0  0  0  0  0  0  0  0  0  0  0
   -5.3483   -0.0780   -0.0853 N   0  0  0  0  0  0  0  0  0  0  0  0
   -5.9456   -0.1636   -1.4111 C   0  0  0  0  0  0  0  0  0  0  0  0
   -4.0150   -0.5200    0.0590 C   0  0  0  0  0  0  0  0  0  0  0  0
   -3.4187   -1.0320   -1.0413 N   0  0  0  0  0  0  0  0  0  0  0  0
   -1.5945   -0.1481   -3.2880 H   0  0  0  0  0  0  0  0  0  0  0  0
   -0.0884   -0.3378   -2.3774 H   0  0  0  0  0  0  0  0  0  0  0  0
   -0.3546   -1.2836   -3.8527 H   0  0  0  0  0  0  0  0  0  0  0  0
   -0.7032   -2.7156   -1.8500 H   0  0  0  0  0  0  0  0  0  0  0  0
   -2.2029   -2.5345   -2.7609 H   0  0  0  0  0  0  0  0  0  0  0  0
   -1.3771    1.4954    3.0214 H   0  0  0  0  0  0  0  0  0  0  0  0
    0.2406    1.0666    3.5089 H   0  0  0  0  0  0  0  0  0  0  0  0
    1.9710   -0.7415    1.6339 H   0  0  0  0  0  0  0  0  0  0  0  0
    2.1485    0.5468    2.8361 H   0  0  0  0  0  0  0  0  0  0  0  0
    4.3260   -0.1564    1.9281 H   0  0  0  0  0  0  0  0  0  0  0  0
    4.0095    1.5546    1.5650 H   0  0  0  0  0  0  0  0  0  0  0  0
    4.3201   -0.9393   -2.4706 H   0  0  0  0  0  0  0  0  0  0  0  0
    6.4813   -1.6006   -3.3931 H   0  0  0  0  0  0  0  0  0  0  0  0
    8.5741   -1.1985   -2.1192 H   0  0  0  0  0  0  0  0  0  0  0  0
    8.4573   -0.0998    0.1048 H   0  0  0  0  0  0  0  0  0  0  0  0
    6.3119    0.6000    1.0313 H   0  0  0  0  0  0  0  0  0  0  0  0
    2.2135   -0.4542   -1.1477 H   0  0  0  0  0  0  0  0  0  0  0  0
    3.0177    0.9169   -1.9441 H   0  0  0  0  0  0  0  0  0  0  0  0
    0.8567    1.6237   -1.0112 H   0  0  0  0  0  0  0  0  0  0  0  0
    2.1925    2.4822   -0.2375 H   0  0  0  0  0  0  0  0  0  0  0  0
   -5.7914    0.6940    4.2749 H   0  0  0  0  0  0  0  0  0  0  0  0
   -6.1747    2.1012    3.2506 H   0  0  0  0  0  0  0  0  0  0  0  0
   -7.2500    0.6831    3.2624 H   0  0  0  0  0  0  0  0  0  0  0  0
   -6.9803    0.1897   -1.4160 H   0  0  0  0  0  0  0  0  0  0  0  0
   -5.9436   -1.2060   -1.7462 H   0  0  0  0  0  0  0  0  0  0  0  0
   -5.3720    0.4564   -2.1077 H   0  0  0  0  0  0  0  0  0  0  0  0
  1  2  1  0
  2  3  1  0
  3  4  2  0
  4  5  1  0
  5  6  1  0
  6  7  1  0
  7  8  1  0
  8  9  2  0
  8 10  1  0
 10 11  1  0
 11 12  1  0
 12 13  1  0
 13 14  1  0
 14 15  2  0
 15 16  1  0
 16 17  2  0
 17 18  1  0
 18 19  2  0
 13 20  1  0
 20 21  1  0
  5 22  2  0
 22 23  1  0
 23 24  2  0
 23 25  1  0
 25 26  1  0
 25 27  1  0
 27 28  2  0
 27 29  1  0
 29 30  1  0
 29 31  1  0
 31 32  2  0
 32  3  1  0
 21 10  1  0
 31 22  1  0
 19 14  1  0
  1 33  1  0
  1 34  1  0
  1 35  1  0
  2 36  1  0
  2 37  1  0
  7 38  1  0
  7 39  1  0
 11 40  1  0
 11 41  1  0
 12 42  1  0
 12 43  1  0
 15 44  1  0
 16 45  1  0
 17 46  1  0
 18 47  1  0
 19 48  1  0
 20 49  1  0
 20 50  1  0
 21 51  1  0
 21 52  1  0
 26 53  1  0
 26 54  1  0
 26 55  1  0
 30 56  1  0
 30 57  1  0
 30 58  1  0
M  END
$$$$
