
     RDKit          3D

 41 44  0  0  0  0  0  0  0  0999 V2000
   -0.9845   -4.8046    1.3975 C   0  0  0  0  0  0  0  0  0  0  0  0
   -0.8416   -3.5280    2.2160 C   0  0  0  0  0  0  0  0  0  0  0  0
   -0.9357   -2.3276    1.3768 N   0  0  0  0  0  0  0  0  0  0  0  0
    0.1597   -1.7160    0.7478 C   0  0  0  0  0  0  0  0  0  0  0  0
    1.7413   -2.4514    1.0031 S   0  0  0  0  0  0  0  0  0  0  0  0
    2.6877   -1.8066   -0.4025 C   0  0  0  0  0  0  0  0  0  0  0  0
    3.4304   -0.5349   -0.0207 C   0  0  0  0  0  0  0  0  0  0  0  0
    4.6216   -0.5822    0.2760 O   0  0  0  0  0  0  0  0  0  0  0  0
    2.6375    0.5875   -0.0728 N   0  0  0  0  0  0  0  0  0  0  0  0
    3.0083    1.8837    0.1673 C   0  0  0  0  0  0  0  0  0  0  0  0
    2.1248    2.8551    0.1488 N   0  0  0  0  0  0  0  0  0  0  0  0
    2.7507    4.0571    0.4134 C   0  0  0  0  0  0  0  0  0  0  0  0
    4.1107    3.9827    0.6179 C   0  0  0  0  0  0  0  0  0  0  0  0
    4.6180    2.3528    0.4736 S   0  0  0  0  0  0  0  0  0  0  0  0
    0.1299   -0.6538   -0.0055 N   0  0  0  0  0  0  0  0  0  0  0  0
   -1.1414   -0.1186   -0.1907 C   0  0  0  0  0  0  0  0  0  0  0  0
   -2.2539   -0.6755    0.3571 C   0  0  0  0  0  0  0  0  0  0  0  0
   -3.3285    0.0752   -0.0288 N   0  0  0  0  0  0  0  0  0  0  0  0
   -2.9020    1.1206   -0.8255 C   0  0  0  0  0  0  0  0  0  0  0  0
   -3.6361    2.1384   -1.4456 C   0  0  0  0  0  0  0  0  0  0  0  0
   -2.9282    3.0794   -2.1996 C   0  0  0  0  0  0  0  0  0  0  0  0
   -1.5426    3.0052   -2.3271 C   0  0  0  0  0  0  0  0  0  0  0  0
   -0.8204    1.9810   -1.7038 C   0  0  0  0  0  0  0  0  0  0  0  0
   -1.5084    1.0199   -0.9394 C   0  0  0  0  0  0  0  0  0  0  0  0
   -2.2298   -1.8359    1.1759 C   0  0  0  0  0  0  0  0  0  0  0  0
   -3.2507   -2.3379    1.6355 O   0  0  0  0  0  0  0  0  0  0  0  0
   -0.9144   -5.6815    2.0486 H   0  0  0  0  0  0  0  0  0  0  0  0
   -1.9519   -4.8374    0.8856 H   0  0  0  0  0  0  0  0  0  0  0  0
   -0.2041   -4.8826    0.6346 H   0  0  0  0  0  0  0  0  0  0  0  0
   -1.6348   -3.5037    2.9730 H   0  0  0  0  0  0  0  0  0  0  0  0
    0.0986   -3.5394    2.7739 H   0  0  0  0  0  0  0  0  0  0  0  0
    2.0718   -1.6487   -1.2936 H   0  0  0  0  0  0  0  0  0  0  0  0
    3.4365   -2.5582   -0.6764 H   0  0  0  0  0  0  0  0  0  0  0  0
    1.6356    0.4706   -0.2107 H   0  0  0  0  0  0  0  0  0  0  0  0
    2.1621    4.9659    0.4447 H   0  0  0  0  0  0  0  0  0  0  0  0
    4.8074    4.7785    0.8366 H   0  0  0  0  0  0  0  0  0  0  0  0
   -4.2884   -0.1092    0.2334 H   0  0  0  0  0  0  0  0  0  0  0  0
   -4.7149    2.2034   -1.3475 H   0  0  0  0  0  0  0  0  0  0  0  0
   -3.4685    3.8851   -2.6919 H   0  0  0  0  0  0  0  0  0  0  0  0
   -1.0120    3.7519   -2.9130 H   0  0  0  0  0  0  0  0  0  0  0  0
    0.2600    1.9396   -1.8033 H   0  0  0  0  0  0  0  0  0  0  0  0
  1  2  1  0
  2  3  1  0
  3  4  1  0
  4  5  1  0
  5  6  1  0
  6  7  1  0
  7  8  2  0
  7  9  1  0
  9 10  1  0
 10 11  2  0
 11 12  1  0
 12 13  2  0
 13 14  1  0
  4 15  2  0
 15 16  1  0
 16 17  2  0
 17 18  1  0
 18 19  1  0
 19 20  2  0
 20 21  1  0
 21 22  2  0
 22 23  1  0
 23 24  2  0
 17 25  1  0
 25 26  2  0
 25  3  1  0
 14 10  1  0
 24 16  1  0
 24 19  1  0
  1 27  1  0
  1 28  1  0
  1 29  1  0
  2 30  1  0
  2 31  1  0
  6 32  1  0
  6 33  1  0
  9 34  1  0
 12 35  1  0
 13 36  1  0
 18 37  1  0
 20 38  1  0
 21 39  1  0
 22 40  1  0
 23 41  1  0
M  END
$$$$
