
     RDKit          3D

 64 69  0  0  0  0  0  0  0  0999 V2000
    2.6706    0.2358    1.5443 O   0  0  0  0  0  0  0  0  0  0  0  0
    3.2238    0.4272    0.2219 S   0  0  0  0  0  6  0  0  0  0  0  0
    4.0006    1.5889   -0.1366 O   0  0  0  0  0  0  0  0  0  0  0  0
    1.9740    0.2854   -0.9483 N   0  0  0  0  0  0  0  0  0  0  0  0
    0.6131    0.4388   -0.3854 C   0  0  0  0  0  0  0  0  0  0  0  0
   -0.0953    1.6222   -0.3253 C   0  0  0  0  0  0  0  0  0  0  0  0
    0.4007    3.1351   -0.9372 S   0  0  0  0  0  6  0  0  0  0  0  0
    1.1965    3.6987    0.1309 O   0  0  0  0  0  0  0  0  0  0  0  0
    0.9899    2.7979   -2.2210 O   0  0  0  0  0  0  0  0  0  0  0  0
   -1.0033    4.1601   -1.2297 C   0  0  0  0  0  0  0  0  0  0  0  0
   -1.2283    5.2682   -0.4037 C   0  0  0  0  0  0  0  0  0  0  0  0
   -2.3014    6.1156   -0.6603 C   0  0  0  0  0  0  0  0  0  0  0  0
   -3.1378    5.8601   -1.7458 C   0  0  0  0  0  0  0  0  0  0  0  0
   -2.9098    4.7579   -2.5708 C   0  0  0  0  0  0  0  0  0  0  0  0
   -1.8389    3.9020   -2.3182 C   0  0  0  0  0  0  0  0  0  0  0  0
   -1.2481    1.3803    0.4302 C   0  0  0  0  0  0  0  0  0  0  0  0
   -2.2254    2.2179    0.8514 N   0  0  0  0  0  0  0  0  0  0  0  0
   -3.1407    1.6621    1.6604 C   0  0  0  0  0  0  0  0  0  0  0  0
   -4.1508    2.4661    2.1760 C   0  0  0  0  0  0  0  0  0  0  0  0
   -5.1138    1.9607    3.0528 C   0  0  0  0  0  0  0  0  0  0  0  0
   -5.0738    0.6233    3.4137 C   0  0  0  0  0  0  0  0  0  0  0  0
   -4.0752   -0.1980    2.8847 C   0  0  0  0  0  0  0  0  0  0  0  0
   -3.1086    0.2941    2.0194 C   0  0  0  0  0  0  0  0  0  0  0  0
   -2.1770   -0.5521    1.5554 N   0  0  0  0  0  0  0  0  0  0  0  0
   -1.2532    0.0304    0.7668 C   0  0  0  0  0  0  0  0  0  0  0  0
   -0.1697   -0.5714    0.1585 N   0  0  0  0  0  0  0  0  0  0  0  0
    0.1770   -1.9999    0.1457 C   0  0  0  0  0  0  0  0  0  0  0  0
    0.5480   -2.5240   -1.2615 C   0  0  0  0  0  0  0  0  0  0  0  0
    1.2132   -3.9048   -1.1953 C   0  0  0  0  0  0  0  0  0  0  0  0
    0.6902   -4.7823   -0.0574 C   0  0  0  0  0  0  0  0  0  0  0  0
   -0.7441   -4.4242    0.3074 C   0  0  0  0  0  0  0  0  0  0  0  0
   -0.8964   -2.9549    0.7319 C   0  0  0  0  0  0  0  0  0  0  0  0
    4.1991   -1.0026   -0.1646 C   0  0  0  0  0  0  0  0  0  0  0  0
    4.3106   -2.0445    0.7575 C   0  0  0  0  0  0  0  0  0  0  0  0
    5.0770   -3.1650    0.4403 C   0  0  0  0  0  0  0  0  0  0  0  0
    5.7302   -3.2381   -0.7920 C   0  0  0  0  0  0  0  0  0  0  0  0
    5.6317   -2.1842   -1.7019 C   0  0  0  0  0  0  0  0  0  0  0  0
    4.8669   -1.0602   -1.3917 C   0  0  0  0  0  0  0  0  0  0  0  0
    2.1734    0.9990   -1.6704 H   0  0  0  0  0  0  0  0  0  0  0  0
   -0.5718    5.4777    0.4362 H   0  0  0  0  0  0  0  0  0  0  0  0
   -2.4759    6.9824   -0.0283 H   0  0  0  0  0  0  0  0  0  0  0  0
   -3.9677    6.5287   -1.9580 H   0  0  0  0  0  0  0  0  0  0  0  0
   -3.5502    4.5823   -3.4329 H   0  0  0  0  0  0  0  0  0  0  0  0
   -1.6622    3.0531   -2.9715 H   0  0  0  0  0  0  0  0  0  0  0  0
   -4.1778    3.5153    1.8931 H   0  0  0  0  0  0  0  0  0  0  0  0
   -5.8855    2.6105    3.4628 H   0  0  0  0  0  0  0  0  0  0  0  0
   -5.8064    0.2102    4.1023 H   0  0  0  0  0  0  0  0  0  0  0  0
   -4.0464   -1.2478    3.1724 H   0  0  0  0  0  0  0  0  0  0  0  0
    1.0649   -2.0656    0.7902 H   0  0  0  0  0  0  0  0  0  0  0  0
   -0.3635   -2.5797   -1.8764 H   0  0  0  0  0  0  0  0  0  0  0  0
    1.2247   -1.8634   -1.8074 H   0  0  0  0  0  0  0  0  0  0  0  0
    1.0630   -4.4139   -2.1558 H   0  0  0  0  0  0  0  0  0  0  0  0
    2.3024   -3.7898   -1.0734 H   0  0  0  0  0  0  0  0  0  0  0  0
    0.7455   -5.8382   -0.3598 H   0  0  0  0  0  0  0  0  0  0  0  0
    1.3282   -4.6726    0.8270 H   0  0  0  0  0  0  0  0  0  0  0  0
   -1.3878   -4.6118   -0.5664 H   0  0  0  0  0  0  0  0  0  0  0  0
   -1.1165   -5.0888    1.0964 H   0  0  0  0  0  0  0  0  0  0  0  0
   -1.9005   -2.6523    0.4157 H   0  0  0  0  0  0  0  0  0  0  0  0
   -0.8676   -2.8829    1.8309 H   0  0  0  0  0  0  0  0  0  0  0  0
    3.8100   -1.9915    1.7207 H   0  0  0  0  0  0  0  0  0  0  0  0
    5.1697   -3.9825    1.1466 H   0  0  0  0  0  0  0  0  0  0  0  0
    6.3240   -4.1161   -1.0446 H   0  0  0  0  0  0  0  0  0  0  0  0
    6.1536   -2.2503   -2.6547 H   0  0  0  0  0  0  0  0  0  0  0  0
    4.7991   -0.2347   -2.0970 H   0  0  0  0  0  0  0  0  0  0  0  0
  1  2  2  0
  2  3  2  0
  2  4  1  0
  4  5  1  0
  5  6  2  0
  6  7  1  0
  7  8  2  0
  7  9  2  0
  7 10  1  0
 10 11  2  0
 11 12  1  0
 12 13  2  0
 13 14  1  0
 14 15  2  0
  6 16  1  0
 16 17  2  0
 17 18  1  0
 18 19  2  0
 19 20  1  0
 20 21  2  0
 21 22  1  0
 22 23  2  0
 23 24  1  0
 24 25  2  0
 25 26  1  0
 26 27  1  0
 27 28  1  0
 28 29  1  0
 29 30  1  0
 30 31  1  0
 31 32  1  0
  2 33  1  0
 33 34  2  0
 34 35  1  0
 35 36  2  0
 36 37  1  0
 37 38  2  0
 26  5  1  0
 32 27  1  0
 38 33  1  0
 15 10  1  0
 25 16  1  0
 23 18  1  0
  4 39  1  0
 11 40  1  0
 12 41  1  0
 13 42  1  0
 14 43  1  0
 15 44  1  0
 19 45  1  0
 20 46  1  0
 21 47  1  0
 22 48  1  0
 27 49  1  0
 28 50  1  0
 28 51  1  0
 29 52  1  0
 29 53  1  0
 30 54  1  0
 30 55  1  0
 31 56  1  0
 31 57  1  0
 32 58  1  0
 32 59  1  0
 34 60  1  0
 35 61  1  0
 36 62  1  0
 37 63  1  0
 38 64  1  0
M  END
$$$$
