
     RDKit          3D

 24 26  0  0  0  0  0  0  0  0999 V2000
   -1.6860    2.7758    1.2869 O   0  0  0  0  0  0  0  0  0  0  0  0
   -0.9696    1.8781    0.8636 C   0  0  0  0  0  0  0  0  0  0  0  0
    0.5347    2.0409    0.8730 C   0  0  0  0  0  0  0  0  0  0  0  0
    1.0372    3.0706    1.3038 O   0  0  0  0  0  0  0  0  0  0  0  0
    1.3699    0.9403    0.3559 C   0  0  0  0  0  0  0  0  0  0  0  0
    2.7657    1.1125    0.3739 C   0  0  0  0  0  0  0  0  0  0  0  0
    3.6016    0.1093   -0.1005 C   0  0  0  0  0  0  0  0  0  0  0  0
    3.0445   -1.0630   -0.5917 C   0  0  0  0  0  0  0  0  0  0  0  0
    1.6536   -1.2314   -0.6082 C   0  0  0  0  0  0  0  0  0  0  0  0
    0.7731   -0.2358   -0.1353 C   0  0  0  0  0  0  0  0  0  0  0  0
   -0.7030   -0.3955   -0.1445 C   0  0  0  0  0  0  0  0  0  0  0  0
   -1.3443   -1.5558   -0.6269 C   0  0  0  0  0  0  0  0  0  0  0  0
   -2.7391   -1.6888   -0.6278 C   0  0  0  0  0  0  0  0  0  0  0  0
   -3.5401   -0.6636   -0.1450 C   0  0  0  0  0  0  0  0  0  0  0  0
   -2.9440    0.4946    0.3383 C   0  0  0  0  0  0  0  0  0  0  0  0
   -1.5436    0.6250    0.3377 C   0  0  0  0  0  0  0  0  0  0  0  0
    3.2022    2.0330    0.7595 H   0  0  0  0  0  0  0  0  0  0  0  0
    4.6803    0.2431   -0.0863 H   0  0  0  0  0  0  0  0  0  0  0  0
    3.6905   -1.8547   -0.9655 H   0  0  0  0  0  0  0  0  0  0  0  0
    1.2874   -2.1736   -1.0063 H   0  0  0  0  0  0  0  0  0  0  0  0
   -0.7801   -2.3973   -1.0191 H   0  0  0  0  0  0  0  0  0  0  0  0
   -3.1961   -2.6000   -1.0085 H   0  0  0  0  0  0  0  0  0  0  0  0
   -4.6226   -0.7636   -0.1443 H   0  0  0  0  0  0  0  0  0  0  0  0
   -3.5721    1.2998    0.7173 H   0  0  0  0  0  0  0  0  0  0  0  0
  1  2  2  0
  2  3  1  0
  3  4  2  0
  3  5  1  0
  5  6  2  0
  6  7  1  0
  7  8  2  0
  8  9  1  0
  9 10  2  0
 10 11  1  0
 11 12  2  0
 12 13  1  0
 13 14  2  0
 14 15  1  0
 15 16  2  0
 16  2  1  0
 10  5  1  0
 16 11  1  0
  6 17  1  0
  7 18  1  0
  8 19  1  0
  9 20  1  0
 12 21  1  0
 13 22  1  0
 14 23  1  0
 15 24  1  0
M  END
$$$$
