
     RDKit          3D

 44 45  0  0  0  0  0  0  0  0999 V2000
    3.6324   -0.2948    1.8365 C   0  0  0  0  0  0  0  0  0  0  0  0
    2.9160    0.0397    0.5307 C   0  0  0  0  0  0  0  0  0  0  0  0
    3.4437    1.3614   -0.0453 C   0  0  0  0  0  0  0  0  0  0  0  0
    2.5351    2.0026   -1.1060 C   0  0  0  0  0  0  0  0  0  0  0  0
    1.2634    2.6298   -0.5148 C   0  0  0  0  0  0  0  0  0  0  0  0
    0.0030    1.9007   -0.8881 C   0  0  0  0  0  0  0  0  0  0  0  0
   -0.7416    1.1992   -0.0185 C   0  0  0  0  0  0  0  0  0  0  0  0
   -2.0423    0.5222   -0.3598 C   0  0  0  0  0  0  0  0  0  0  0  0
   -3.1185    0.7734    0.7150 C   0  0  0  0  0  0  0  0  0  0  0  0
   -3.9790   -0.4863    0.7598 C   0  0  0  0  0  0  0  0  0  0  0  0
   -5.3525   -0.1598    0.6182 O   0  0  0  0  0  0  0  0  0  0  0  0
   -3.5119   -1.3524   -0.4010 C   0  0  0  0  0  0  0  0  0  0  0  0
   -2.0256   -1.0102   -0.5966 C   0  0  0  0  0  0  0  0  0  0  0  0
   -1.1152   -1.8813    0.3049 C   0  0  0  0  0  0  0  0  0  0  0  0
   -1.2667   -1.5004    1.6685 O   0  0  0  0  0  0  0  0  0  0  0  0
    0.3604   -1.9004   -0.0002 C   0  0  0  0  0  0  0  0  0  0  0  0
    0.9579   -1.4110   -1.0996 C   0  0  0  0  0  0  0  0  0  0  0  0
    2.4039   -1.5221   -1.3284 C   0  0  0  0  0  0  0  0  0  0  0  0
    2.8165   -2.0531   -2.3526 O   0  0  0  0  0  0  0  0  0  0  0  0
    3.2386   -1.0383   -0.3842 O   0  0  0  0  0  0  0  0  0  0  0  0
    3.2882   -1.2607    2.2222 H   0  0  0  0  0  0  0  0  0  0  0  0
    3.4481    0.4686    2.5985 H   0  0  0  0  0  0  0  0  0  0  0  0
    4.7135   -0.3840    1.6815 H   0  0  0  0  0  0  0  0  0  0  0  0
    1.8494    0.1058    0.7418 H   0  0  0  0  0  0  0  0  0  0  0  0
    3.6000    2.0892    0.7607 H   0  0  0  0  0  0  0  0  0  0  0  0
    4.4232    1.1830   -0.5077 H   0  0  0  0  0  0  0  0  0  0  0  0
    2.3076    1.2901   -1.9063 H   0  0  0  0  0  0  0  0  0  0  0  0
    3.1142    2.8095   -1.5744 H   0  0  0  0  0  0  0  0  0  0  0  0
    1.3455    2.7326    0.5740 H   0  0  0  0  0  0  0  0  0  0  0  0
    1.1645    3.6518   -0.9030 H   0  0  0  0  0  0  0  0  0  0  0  0
   -0.3208    1.9950   -1.9232 H   0  0  0  0  0  0  0  0  0  0  0  0
   -0.4118    1.1133    1.0163 H   0  0  0  0  0  0  0  0  0  0  0  0
   -2.4253    0.9740   -1.2880 H   0  0  0  0  0  0  0  0  0  0  0  0
   -2.6755    0.9432    1.7040 H   0  0  0  0  0  0  0  0  0  0  0  0
   -3.7038    1.6687    0.4740 H   0  0  0  0  0  0  0  0  0  0  0  0
   -3.8491   -1.0011    1.7179 H   0  0  0  0  0  0  0  0  0  0  0  0
   -5.8552   -0.9908    0.6649 H   0  0  0  0  0  0  0  0  0  0  0  0
   -3.6894   -2.4160   -0.2103 H   0  0  0  0  0  0  0  0  0  0  0  0
   -4.0757   -1.1020   -1.3096 H   0  0  0  0  0  0  0  0  0  0  0  0
   -1.7804   -1.2219   -1.6448 H   0  0  0  0  0  0  0  0  0  0  0  0
   -1.4581   -2.9213    0.2298 H   0  0  0  0  0  0  0  0  0  0  0  0
   -0.8269   -2.1745    2.2142 H   0  0  0  0  0  0  0  0  0  0  0  0
    0.9867   -2.3869    0.7462 H   0  0  0  0  0  0  0  0  0  0  0  0
    0.4135   -0.9843   -1.9321 H   0  0  0  0  0  0  0  0  0  0  0  0
  1  2  1  0
  2  3  1  0
  3  4  1  0
  4  5  1  0
  5  6  1  0
  6  7  2  0
  7  8  1  0
  8  9  1  0
  9 10  1  0
 10 11  1  0
 10 12  1  0
 12 13  1  0
 13 14  1  0
 14 15  1  0
 14 16  1  0
 16 17  2  0
 17 18  1  0
 18 19  2  0
 18 20  1  0
 20  2  1  0
 13  8  1  0
  1 21  1  0
  1 22  1  0
  1 23  1  0
  2 24  1  0
  3 25  1  0
  3 26  1  0
  4 27  1  0
  4 28  1  0
  5 29  1  0
  5 30  1  0
  6 31  1  0
  7 32  1  0
  8 33  1  0
  9 34  1  0
  9 35  1  0
 10 36  1  0
 11 37  1  0
 12 38  1  0
 12 39  1  0
 13 40  1  0
 14 41  1  0
 15 42  1  0
 16 43  1  0
 17 44  1  0
M  END
$$$$
