
     RDKit          3D

 49 50  0  0  0  0  0  0  0  0999 V2000
   -8.0894    0.1895    1.2149 C   0  0  0  0  0  0  0  0  0  0  0  0
   -7.3093    1.0489    0.2313 C   0  0  0  0  0  0  0  0  0  0  0  0
   -5.7975    0.8574    0.3178 C   0  0  0  0  0  0  0  0  0  0  0  0
   -5.2531   -0.7255   -0.3237 S   0  0  0  0  0  6  0  0  0  0  0  0
   -5.6866   -0.8319   -1.6972 O   0  0  0  0  0  0  0  0  0  0  0  0
   -5.5401   -1.7505    0.6544 O   0  0  0  0  0  0  0  0  0  0  0  0
   -3.5949   -0.5323   -0.3857 N   0  0  0  0  0  0  0  0  0  0  0  0
   -2.8448   -0.4639    0.8682 C   0  0  0  0  0  0  0  0  0  0  0  0
   -1.3487   -0.4741    0.6425 C   0  0  0  0  0  0  0  0  0  0  0  0
   -0.7655   -1.3708   -0.2787 C   0  0  0  0  0  0  0  0  0  0  0  0
    0.6204   -1.4090   -0.4772 C   0  0  0  0  0  0  0  0  0  0  0  0
    1.4235   -0.5642    0.2694 C   0  0  0  0  0  0  0  0  0  0  0  0
    0.8577    0.3100    1.1980 C   0  0  0  0  0  0  0  0  0  0  0  0
   -0.5159    0.3713    1.3938 C   0  0  0  0  0  0  0  0  0  0  0  0
    1.9038    1.1359    1.8736 C   0  0  0  0  0  0  0  0  0  0  0  0
    3.1954    0.4891    1.3572 C   0  0  0  0  0  0  0  0  0  0  0  0
    2.8274   -0.4350    0.2708 N   0  0  0  0  0  0  0  0  0  0  0  0
    3.7003   -1.1620   -0.5229 C   0  0  0  0  0  0  0  0  0  0  0  0
    3.3578   -1.9780   -1.3809 O   0  0  0  0  0  0  0  0  0  0  0  0
    5.1848   -0.8892   -0.3253 C   0  0  0  0  0  0  0  0  0  0  0  0
    5.6688    0.3319   -1.1230 C   0  0  0  0  0  0  0  0  0  0  0  0
    5.7399    0.0292   -2.6208 C   0  0  0  0  0  0  0  0  0  0  0  0
    7.0448    0.7741   -0.6244 C   0  0  0  0  0  0  0  0  0  0  0  0
   -9.1516    0.4518    1.1846 H   0  0  0  0  0  0  0  0  0  0  0  0
   -7.7334    0.3386    2.2400 H   0  0  0  0  0  0  0  0  0  0  0  0
   -8.0086   -0.8725    0.9659 H   0  0  0  0  0  0  0  0  0  0  0  0
   -7.5364    2.0991    0.4424 H   0  0  0  0  0  0  0  0  0  0  0  0
   -7.6628    0.8443   -0.7837 H   0  0  0  0  0  0  0  0  0  0  0  0
   -5.3041    1.6240   -0.2889 H   0  0  0  0  0  0  0  0  0  0  0  0
   -5.4522    0.9438    1.3513 H   0  0  0  0  0  0  0  0  0  0  0  0
   -3.2523    0.0221   -1.1718 H   0  0  0  0  0  0  0  0  0  0  0  0
   -3.1156    0.4602    1.3842 H   0  0  0  0  0  0  0  0  0  0  0  0
   -3.0961   -1.3080    1.5168 H   0  0  0  0  0  0  0  0  0  0  0  0
   -1.3964   -2.0560   -0.8485 H   0  0  0  0  0  0  0  0  0  0  0  0
    1.0331   -2.1088   -1.1957 H   0  0  0  0  0  0  0  0  0  0  0  0
   -0.9293    1.0625    2.1235 H   0  0  0  0  0  0  0  0  0  0  0  0
    1.8381    1.0821    2.9649 H   0  0  0  0  0  0  0  0  0  0  0  0
    1.8328    2.1805    1.5498 H   0  0  0  0  0  0  0  0  0  0  0  0
    3.6814   -0.0952    2.1463 H   0  0  0  0  0  0  0  0  0  0  0  0
    3.9055    1.2414    1.0051 H   0  0  0  0  0  0  0  0  0  0  0  0
    5.7388   -1.7909   -0.6235 H   0  0  0  0  0  0  0  0  0  0  0  0
    5.3885   -0.7670    0.7447 H   0  0  0  0  0  0  0  0  0  0  0  0
    4.9724    1.1659   -0.9857 H   0  0  0  0  0  0  0  0  0  0  0  0
    6.4101   -0.8117   -2.8234 H   0  0  0  0  0  0  0  0  0  0  0  0
    6.1135    0.8976   -3.1758 H   0  0  0  0  0  0  0  0  0  0  0  0
    4.7532   -0.2175   -3.0204 H   0  0  0  0  0  0  0  0  0  0  0  0
    7.7985    0.0002   -0.8038 H   0  0  0  0  0  0  0  0  0  0  0  0
    7.3693    1.6834   -1.1360 H   0  0  0  0  0  0  0  0  0  0  0  0
    7.0247    0.9793    0.4519 H   0  0  0  0  0  0  0  0  0  0  0  0
  1  2  1  0
  2  3  1  0
  3  4  1  0
  4  5  2  0
  4  6  2  0
  4  7  1  0
  7  8  1  0
  8  9  1  0
  9 10  2  0
 10 11  1  0
 11 12  2  0
 12 13  1  0
 13 14  2  0
 13 15  1  0
 15 16  1  0
 16 17  1  0
 17 18  1  0
 18 19  2  0
 18 20  1  0
 20 21  1  0
 21 22  1  0
 21 23  1  0
 14  9  1  0
 17 12  1  0
  1 24  1  0
  1 25  1  0
  1 26  1  0
  2 27  1  0
  2 28  1  0
  3 29  1  0
  3 30  1  0
  7 31  1  0
  8 32  1  0
  8 33  1  0
 10 34  1  0
 11 35  1  0
 14 36  1  0
 15 37  1  0
 15 38  1  0
 16 39  1  0
 16 40  1  0
 20 41  1  0
 20 42  1  0
 21 43  1  0
 22 44  1  0
 22 45  1  0
 22 46  1  0
 23 47  1  0
 23 48  1  0
 23 49  1  0
M  END
$$$$
