
     RDKit          3D

 57 60  0  0  0  0  0  0  0  0999 V2000
   -6.6245   -2.5090   -0.7048 C   0  0  0  0  0  0  0  0  0  0  0  0
   -6.7490   -1.6246    0.4004 O   0  0  0  0  0  0  0  0  0  0  0  0
   -5.6423   -0.8928    0.7501 C   0  0  0  0  0  0  0  0  0  0  0  0
   -4.3643   -1.0665    0.2060 C   0  0  0  0  0  0  0  0  0  0  0  0
   -3.2813   -0.2773    0.6160 C   0  0  0  0  0  0  0  0  0  0  0  0
   -1.9828   -0.4131    0.1042 N   0  0  0  0  0  0  0  0  0  0  0  0
   -1.3839   -1.2642   -0.8197 C   0  0  0  0  0  0  0  0  0  0  0  0
   -2.0696   -2.2291   -1.4504 N   0  0  0  0  0  0  0  0  0  0  0  0
   -1.3883   -3.0000   -2.3191 C   0  0  0  0  0  0  0  0  0  0  0  0
   -0.0527   -2.8403   -2.5732 C   0  0  0  0  0  0  0  0  0  0  0  0
    0.5882   -3.6381   -3.4381 F   0  0  0  0  0  0  0  0  0  0  0  0
    0.5984   -1.8313   -1.8864 C   0  0  0  0  0  0  0  0  0  0  0  0
    1.9676   -1.6193   -2.1528 N   0  0  0  0  0  0  0  0  0  0  0  0
    2.8356   -0.6643   -1.6236 C   0  0  0  0  0  0  0  0  0  0  0  0
    2.4369    0.6351   -1.3190 C   0  0  0  0  0  0  0  0  0  0  0  0
    3.3687    1.5421   -0.8164 C   0  0  0  0  0  0  0  0  0  0  0  0
    4.6815    1.1346   -0.6497 C   0  0  0  0  0  0  0  0  0  0  0  0
    5.0026   -0.1738   -0.9879 C   0  0  0  0  0  0  0  0  0  0  0  0
    4.1164   -1.0689   -1.4698 N   0  0  0  0  0  0  0  0  0  0  0  0
    6.2954   -0.6308   -0.7873 N   0  0  0  0  0  0  0  0  0  0  0  0
    7.2814    0.1745   -0.2970 C   0  0  0  0  0  0  0  0  0  0  0  0
    8.3788   -0.2866    0.0098 O   0  0  0  0  0  0  0  0  0  0  0  0
    6.9427    1.6855   -0.2692 C   0  0  0  0  0  0  0  0  0  0  0  0
    7.6716    2.3334    0.9129 C   0  0  0  0  0  0  0  0  0  0  0  0
    7.4508    2.3073   -1.5790 C   0  0  0  0  0  0  0  0  0  0  0  0
    5.5609    2.0390   -0.1300 O   0  0  0  0  0  0  0  0  0  0  0  0
   -0.0716   -1.0401   -1.0203 N   0  0  0  0  0  0  0  0  0  0  0  0
   -3.5099    0.7102    1.5933 C   0  0  0  0  0  0  0  0  0  0  0  0
   -4.7759    0.9072    2.1534 C   0  0  0  0  0  0  0  0  0  0  0  0
   -5.0730    1.8434    3.1100 O   0  0  0  0  0  0  0  0  0  0  0  0
   -4.0912    2.8323    3.3852 C   0  0  0  0  0  0  0  0  0  0  0  0
   -5.8318    0.0836    1.7391 C   0  0  0  0  0  0  0  0  0  0  0  0
   -7.0921    0.2911    2.2553 O   0  0  0  0  0  0  0  0  0  0  0  0
   -7.2841   -0.5337    3.4030 C   0  0  0  0  0  0  0  0  0  0  0  0
   -7.6097   -2.9451   -0.8959 H   0  0  0  0  0  0  0  0  0  0  0  0
   -6.3167   -1.9749   -1.6099 H   0  0  0  0  0  0  0  0  0  0  0  0
   -5.9378   -3.3301   -0.4750 H   0  0  0  0  0  0  0  0  0  0  0  0
   -4.2031   -1.8268   -0.5468 H   0  0  0  0  0  0  0  0  0  0  0  0
   -1.2789    0.2094    0.4743 H   0  0  0  0  0  0  0  0  0  0  0  0
   -1.9618   -3.7730   -2.8184 H   0  0  0  0  0  0  0  0  0  0  0  0
    2.4792   -2.4889   -2.2657 H   0  0  0  0  0  0  0  0  0  0  0  0
    1.4127    0.9551   -1.4781 H   0  0  0  0  0  0  0  0  0  0  0  0
    3.0689    2.5551   -0.5657 H   0  0  0  0  0  0  0  0  0  0  0  0
    6.4743   -1.6156   -0.9129 H   0  0  0  0  0  0  0  0  0  0  0  0
    8.7573    2.2042    0.8499 H   0  0  0  0  0  0  0  0  0  0  0  0
    7.4528    3.4057    0.9707 H   0  0  0  0  0  0  0  0  0  0  0  0
    7.3342    1.8924    1.8584 H   0  0  0  0  0  0  0  0  0  0  0  0
    8.5251    2.1424   -1.7135 H   0  0  0  0  0  0  0  0  0  0  0  0
    6.9380    1.8773   -2.4469 H   0  0  0  0  0  0  0  0  0  0  0  0
    7.2563    3.3856   -1.6026 H   0  0  0  0  0  0  0  0  0  0  0  0
   -2.6714    1.3201    1.9129 H   0  0  0  0  0  0  0  0  0  0  0  0
   -3.2188    2.3906    3.8774 H   0  0  0  0  0  0  0  0  0  0  0  0
   -3.8024    3.3721    2.4771 H   0  0  0  0  0  0  0  0  0  0  0  0
   -4.5309    3.5571    4.0772 H   0  0  0  0  0  0  0  0  0  0  0  0
   -7.2199   -1.5970    3.1476 H   0  0  0  0  0  0  0  0  0  0  0  0
   -6.5668   -0.2906    4.1945 H   0  0  0  0  0  0  0  0  0  0  0  0
   -8.2895   -0.3405    3.7892 H   0  0  0  0  0  0  0  0  0  0  0  0
  1  2  1  0
  2  3  1  0
  3  4  2  0
  4  5  1  0
  5  6  1  0
  6  7  1  0
  7  8  2  0
  8  9  1  0
  9 10  2  0
 10 11  1  0
 10 12  1  0
 12 13  1  0
 13 14  1  0
 14 15  2  0
 15 16  1  0
 16 17  2  0
 17 18  1  0
 18 19  2  0
 18 20  1  0
 20 21  1  0
 21 22  2  0
 21 23  1  0
 23 24  1  0
 23 25  1  0
 23 26  1  0
 12 27  2  0
  5 28  2  0
 28 29  1  0
 29 30  1  0
 30 31  1  0
 29 32  2  0
 32 33  1  0
 33 34  1  0
 32  3  1  0
 27  7  1  0
 19 14  1  0
 26 17  1  0
  1 35  1  0
  1 36  1  0
  1 37  1  0
  4 38  1  0
  6 39  1  0
  9 40  1  0
 13 41  1  0
 15 42  1  0
 16 43  1  0
 20 44  1  0
 24 45  1  0
 24 46  1  0
 24 47  1  0
 25 48  1  0
 25 49  1  0
 25 50  1  0
 28 51  1  0
 31 52  1  0
 31 53  1  0
 31 54  1  0
 34 55  1  0
 34 56  1  0
 34 57  1  0
M  END
$$$$
