
     RDKit          3D

 31 34  0  0  0  0  0  0  0  0999 V2000
    0.3691    3.6627    1.0107 O   0  0  0  0  0  0  0  0  0  0  0  0
    0.6128    2.5847    0.4571 C   0  0  0  0  0  0  0  0  0  0  0  0
   -0.3259    2.0225   -0.5860 C   0  0  0  0  0  0  0  0  0  0  0  0
   -0.7259    0.6266   -0.2951 C   0  0  0  0  0  0  0  0  0  0  0  0
    0.1712   -0.4096   -0.1232 C   0  0  0  0  0  0  0  0  0  0  0  0
   -0.5692   -1.5386    0.1406 N   0  0  0  0  0  0  0  0  0  0  0  0
   -1.9158   -1.2624    0.1104 C   0  0  0  0  0  0  0  0  0  0  0  0
   -3.0133   -2.1084    0.3100 C   0  0  0  0  0  0  0  0  0  0  0  0
   -4.2890   -1.5430    0.2254 C   0  0  0  0  0  0  0  0  0  0  0  0
   -4.4470   -0.1862   -0.0449 C   0  0  0  0  0  0  0  0  0  0  0  0
   -6.1900    0.5447   -0.1506 Br  0  0  0  0  0  0  0  0  0  0  0  0
   -3.3419    0.6490   -0.2392 C   0  0  0  0  0  0  0  0  0  0  0  0
   -2.0462    0.0982   -0.1606 C   0  0  0  0  0  0  0  0  0  0  0  0
    1.6345   -0.3689   -0.1352 C   0  0  0  0  0  0  0  0  0  0  0  0
    2.3430   -1.5170   -0.5416 C   0  0  0  0  0  0  0  0  0  0  0  0
    3.7354   -1.5738   -0.4699 C   0  0  0  0  0  0  0  0  0  0  0  0
    4.4448   -0.4859    0.0192 C   0  0  0  0  0  0  0  0  0  0  0  0
    3.7623    0.6663    0.4097 C   0  0  0  0  0  0  0  0  0  0  0  0
    2.3625    0.7557    0.3075 C   0  0  0  0  0  0  0  0  0  0  0  0
    1.8140    1.9887    0.7197 N   0  0  0  0  0  0  0  0  0  0  0  0
   -1.2061    2.6737   -0.6324 H   0  0  0  0  0  0  0  0  0  0  0  0
    0.1671    2.0845   -1.5634 H   0  0  0  0  0  0  0  0  0  0  0  0
   -0.1826   -2.4463    0.3542 H   0  0  0  0  0  0  0  0  0  0  0  0
   -2.8866   -3.1648    0.5236 H   0  0  0  0  0  0  0  0  0  0  0  0
   -5.1591   -2.1777    0.3759 H   0  0  0  0  0  0  0  0  0  0  0  0
   -3.4763    1.7063   -0.4449 H   0  0  0  0  0  0  0  0  0  0  0  0
    1.8156   -2.3870   -0.9260 H   0  0  0  0  0  0  0  0  0  0  0  0
    4.2616   -2.4702   -0.7884 H   0  0  0  0  0  0  0  0  0  0  0  0
    5.5289   -0.5266    0.0887 H   0  0  0  0  0  0  0  0  0  0  0  0
    4.3447    1.5103    0.7733 H   0  0  0  0  0  0  0  0  0  0  0  0
    2.4076    2.5926    1.2754 H   0  0  0  0  0  0  0  0  0  0  0  0
  1  2  2  0
  2  3  1  0
  3  4  1  0
  4  5  2  0
  5  6  1  0
  6  7  1  0
  7  8  2  0
  8  9  1  0
  9 10  2  0
 10 11  1  0
 10 12  1  0
 12 13  2  0
  5 14  1  0
 14 15  2  0
 15 16  1  0
 16 17  2  0
 17 18  1  0
 18 19  2  0
 19 20  1  0
 20  2  1  0
 13  4  1  0
 19 14  1  0
 13  7  1  0
  3 21  1  0
  3 22  1  0
  6 23  1  0
  8 24  1  0
  9 25  1  0
 12 26  1  0
 15 27  1  0
 16 28  1  0
 17 29  1  0
 18 30  1  0
 20 31  1  0
M  END
$$$$
