
     RDKit          3D

 59 61  0  0  0  0  0  0  0  0999 V2000
    0.3005    3.9895   -1.4250 C   0  0  0  0  0  0  0  0  0  0  0  0
   -0.5252    2.9206   -1.8768 O   0  0  0  0  0  0  0  0  0  0  0  0
   -0.6584    1.9001   -0.9831 C   0  0  0  0  0  0  0  0  0  0  0  0
   -0.1290    1.8687    0.1217 O   0  0  0  0  0  0  0  0  0  0  0  0
   -1.5277    0.8727   -1.5147 C   0  0  0  0  0  0  0  0  0  0  0  0
   -3.0432    1.3204   -2.1993 S   0  0  0  0  0  0  0  0  0  0  0  0
   -3.4752   -0.3050   -2.4979 C   0  0  0  0  0  0  0  0  0  0  0  0
   -2.4938   -1.1797   -2.0924 C   0  0  0  0  0  0  0  0  0  0  0  0
   -1.3655   -0.5021   -1.5198 C   0  0  0  0  0  0  0  0  0  0  0  0
    0.0441   -1.3693   -0.9634 S   0  0  0  0  0  6  0  0  0  0  0  0
    1.1079   -0.3965   -1.0405 O   0  0  0  0  0  0  0  0  0  0  0  0
    0.0586   -2.5335   -1.8271 O   0  0  0  0  0  0  0  0  0  0  0  0
   -0.2099   -1.8627    0.6452 N   0  0  0  0  0  0  0  0  0  0  0  0
    0.0568   -0.8838    1.7229 C   0  0  0  0  0  0  0  0  0  0  0  0
    1.5419   -0.6259    1.9253 C   0  0  0  0  0  0  0  0  0  0  0  0
    2.2885   -1.4664    2.4231 O   0  0  0  0  0  0  0  0  0  0  0  0
    1.9735    0.6236    1.5534 N   0  0  0  0  0  0  0  0  0  0  0  0
    3.3666    0.9878    1.6340 C   0  0  0  0  0  0  0  0  0  0  0  0
    3.7208    2.0631    0.6456 C   0  0  0  0  0  0  0  0  0  0  0  0
    3.8766    3.3970    1.0478 C   0  0  0  0  0  0  0  0  0  0  0  0
    4.2132    4.3825    0.1162 C   0  0  0  0  0  0  0  0  0  0  0  0
    4.4022    4.0515   -1.2302 C   0  0  0  0  0  0  0  0  0  0  0  0
    4.7266    5.1149   -2.2390 C   0  0  0  0  0  0  0  0  0  0  0  0
    4.2202    2.7244   -1.6363 C   0  0  0  0  0  0  0  0  0  0  0  0
    3.8827    1.7399   -0.7064 C   0  0  0  0  0  0  0  0  0  0  0  0
   -1.3099   -2.7685    0.8519 C   0  0  0  0  0  0  0  0  0  0  0  0
   -1.1425   -4.1110    0.5417 C   0  0  0  0  0  0  0  0  0  0  0  0
   -2.2148   -4.9899    0.6563 C   0  0  0  0  0  0  0  0  0  0  0  0
   -3.4739   -4.5393    1.0821 C   0  0  0  0  0  0  0  0  0  0  0  0
   -4.6037   -5.5267    1.1955 C   0  0  0  0  0  0  0  0  0  0  0  0
   -3.6560   -3.1755    1.3722 C   0  0  0  0  0  0  0  0  0  0  0  0
   -4.9864   -2.6407    1.8276 C   0  0  0  0  0  0  0  0  0  0  0  0
   -2.5674   -2.3016    1.2550 C   0  0  0  0  0  0  0  0  0  0  0  0
    0.3994    4.7067   -2.2407 H   0  0  0  0  0  0  0  0  0  0  0  0
    1.2918    3.6239   -1.1645 H   0  0  0  0  0  0  0  0  0  0  0  0
   -0.1619    4.4888   -0.5687 H   0  0  0  0  0  0  0  0  0  0  0  0
   -4.4241   -0.5443   -2.9633 H   0  0  0  0  0  0  0  0  0  0  0  0
   -2.5710   -2.2578   -2.2062 H   0  0  0  0  0  0  0  0  0  0  0  0
   -0.3003   -1.2759    2.6850 H   0  0  0  0  0  0  0  0  0  0  0  0
   -0.5022    0.0380    1.5610 H   0  0  0  0  0  0  0  0  0  0  0  0
    1.3522    1.2139    0.9996 H   0  0  0  0  0  0  0  0  0  0  0  0
    3.5584    1.3293    2.6557 H   0  0  0  0  0  0  0  0  0  0  0  0
    3.9940    0.1076    1.4734 H   0  0  0  0  0  0  0  0  0  0  0  0
    3.7398    3.6788    2.0888 H   0  0  0  0  0  0  0  0  0  0  0  0
    4.3300    5.4117    0.4511 H   0  0  0  0  0  0  0  0  0  0  0  0
    3.8034    5.4872   -2.6996 H   0  0  0  0  0  0  0  0  0  0  0  0
    5.2486    5.9560   -1.7716 H   0  0  0  0  0  0  0  0  0  0  0  0
    5.3831    4.7206   -3.0267 H   0  0  0  0  0  0  0  0  0  0  0  0
    4.3361    2.4436   -2.6799 H   0  0  0  0  0  0  0  0  0  0  0  0
    3.7386    0.7130   -1.0425 H   0  0  0  0  0  0  0  0  0  0  0  0
   -0.1758   -4.4792    0.2020 H   0  0  0  0  0  0  0  0  0  0  0  0
   -2.0633   -6.0378    0.4003 H   0  0  0  0  0  0  0  0  0  0  0  0
   -5.3471   -5.3372    0.4226 H   0  0  0  0  0  0  0  0  0  0  0  0
   -4.2496   -6.5478    1.0744 H   0  0  0  0  0  0  0  0  0  0  0  0
   -5.0790   -5.4691    2.1816 H   0  0  0  0  0  0  0  0  0  0  0  0
   -5.7817   -2.9465    1.1359 H   0  0  0  0  0  0  0  0  0  0  0  0
   -4.9907   -1.5454    1.8617 H   0  0  0  0  0  0  0  0  0  0  0  0
   -5.2161   -3.0066    2.8346 H   0  0  0  0  0  0  0  0  0  0  0  0
   -2.7110   -1.2500    1.4702 H   0  0  0  0  0  0  0  0  0  0  0  0
  1  2  1  0
  2  3  1  0
  3  4  2  0
  3  5  1  0
  5  6  1  0
  6  7  1  0
  7  8  2  0
  8  9  1  0
  9 10  1  0
 10 11  2  0
 10 12  2  0
 10 13  1  0
 13 14  1  0
 14 15  1  0
 15 16  2  0
 15 17  1  0
 17 18  1  0
 18 19  1  0
 19 20  2  0
 20 21  1  0
 21 22  2  0
 22 23  1  0
 22 24  1  0
 24 25  2  0
 13 26  1  0
 26 27  2  0
 27 28  1  0
 28 29  2  0
 29 30  1  0
 29 31  1  0
 31 32  1  0
 31 33  2  0
  9  5  2  0
 25 19  1  0
 33 26  1  0
  1 34  1  0
  1 35  1  0
  1 36  1  0
  7 37  1  0
  8 38  1  0
 14 39  1  0
 14 40  1  0
 17 41  1  0
 18 42  1  0
 18 43  1  0
 20 44  1  0
 21 45  1  0
 23 46  1  0
 23 47  1  0
 23 48  1  0
 24 49  1  0
 25 50  1  0
 27 51  1  0
 28 52  1  0
 30 53  1  0
 30 54  1  0
 30 55  1  0
 32 56  1  0
 32 57  1  0
 32 58  1  0
 33 59  1  0
M  END
$$$$
