
     RDKit          3D

 69 74  0  0  0  0  0  0  0  0999 V2000
    9.7845    1.9495   -1.2548 C   0  0  0  0  0  0  0  0  0  0  0  0
    9.3586    0.9821   -0.3038 O   0  0  0  0  0  0  0  0  0  0  0  0
    8.0657    0.5557   -0.3894 C   0  0  0  0  0  0  0  0  0  0  0  0
    7.1315    0.9491   -1.3412 C   0  0  0  0  0  0  0  0  0  0  0  0
    5.8218    0.4522   -1.2883 C   0  0  0  0  0  0  0  0  0  0  0  0
    5.4010   -0.4381   -0.2858 C   0  0  0  0  0  0  0  0  0  0  0  0
    4.0596   -0.8696   -0.2633 N   0  0  0  0  0  0  0  0  0  0  0  0
    3.1080    0.2528   -0.0558 C   0  0  0  0  0  0  0  0  0  0  0  0
    1.6539   -0.2159   -0.2518 C   0  0  0  0  0  0  0  0  0  0  0  0
    1.3418   -1.3963    0.5686 N   0  0  0  0  0  0  0  0  0  0  0  0
    0.0733   -1.6944    1.0532 C   0  0  0  0  0  0  0  0  0  0  0  0
   -0.3199   -2.8376    1.2733 O   0  0  0  0  0  0  0  0  0  0  0  0
   -0.8517   -0.5826    1.3836 C   0  0  0  0  0  0  0  0  0  0  0  0
   -0.4195    0.5167    2.1213 C   0  0  0  0  0  0  0  0  0  0  0  0
   -1.3248    1.5264    2.4385 C   0  0  0  0  0  0  0  0  0  0  0  0
   -2.6749    1.4365    2.0510 C   0  0  0  0  0  0  0  0  0  0  0  0
   -3.1348    0.2973    1.3540 C   0  0  0  0  0  0  0  0  0  0  0  0
   -2.2008   -0.7007    1.0283 C   0  0  0  0  0  0  0  0  0  0  0  0
   -4.5161    0.0881    1.0246 N   0  0  0  0  0  0  0  0  0  0  0  0
   -5.1061   -1.2213    1.3612 C   0  0  0  0  0  0  0  0  0  0  0  0
   -5.1465   -2.2203    0.2205 C   0  0  0  0  0  0  0  0  0  0  0  0
   -5.8828   -1.9646   -0.9479 C   0  0  0  0  0  0  0  0  0  0  0  0
   -5.9297   -2.9040   -1.9811 C   0  0  0  0  0  0  0  0  0  0  0  0
   -5.2479   -4.1059   -1.8478 C   0  0  0  0  0  0  0  0  0  0  0  0
   -5.2939   -5.0043   -2.8409 F   0  0  0  0  0  0  0  0  0  0  0  0
   -4.5239   -4.3900   -0.6968 C   0  0  0  0  0  0  0  0  0  0  0  0
   -4.4782   -3.4532    0.3385 C   0  0  0  0  0  0  0  0  0  0  0  0
   -5.3948    1.0789    0.5682 C   0  0  0  0  0  0  0  0  0  0  0  0
   -6.6137    0.9292    0.4893 O   0  0  0  0  0  0  0  0  0  0  0  0
   -4.8567    2.3508    0.0474 C   0  0  0  0  0  0  0  0  0  0  0  0
   -5.1541    2.7016   -1.2766 C   0  0  0  0  0  0  0  0  0  0  0  0
   -4.7029    3.9167   -1.7934 C   0  0  0  0  0  0  0  0  0  0  0  0
   -3.9715    4.7843   -0.9843 C   0  0  0  0  0  0  0  0  0  0  0  0
   -3.6958    4.4424    0.3419 C   0  0  0  0  0  0  0  0  0  0  0  0
   -4.1355    3.2193    0.8652 C   0  0  0  0  0  0  0  0  0  0  0  0
   -3.7995    2.7619    2.5742 S   0  0  0  0  0  4  0  0  0  0  0  0
   -2.9246    3.8535    3.1233 O   0  0  0  0  0  0  0  0  0  0  0  0
    2.2816   -2.5035    0.3686 C   0  0  0  0  0  0  0  0  0  0  0  0
    3.7409   -2.0538    0.5726 C   0  0  0  0  0  0  0  0  0  0  0  0
    6.3688   -0.8498    0.6394 C   0  0  0  0  0  0  0  0  0  0  0  0
    7.6799   -0.3564    0.5916 C   0  0  0  0  0  0  0  0  0  0  0  0
    9.2113    2.8776   -1.1536 H   0  0  0  0  0  0  0  0  0  0  0  0
    9.7292    1.5538   -2.2730 H   0  0  0  0  0  0  0  0  0  0  0  0
   10.8336    2.1839   -1.0483 H   0  0  0  0  0  0  0  0  0  0  0  0
    7.3795    1.6396   -2.1407 H   0  0  0  0  0  0  0  0  0  0  0  0
    5.1250    0.7584   -2.0640 H   0  0  0  0  0  0  0  0  0  0  0  0
    3.2308    0.6488    0.9600 H   0  0  0  0  0  0  0  0  0  0  0  0
    3.2885    1.0753   -0.7564 H   0  0  0  0  0  0  0  0  0  0  0  0
    1.4982   -0.5127   -1.2977 H   0  0  0  0  0  0  0  0  0  0  0  0
    0.9667    0.6094   -0.0621 H   0  0  0  0  0  0  0  0  0  0  0  0
    0.6100    0.5890    2.4623 H   0  0  0  0  0  0  0  0  0  0  0  0
   -0.9737    2.3806    3.0150 H   0  0  0  0  0  0  0  0  0  0  0  0
   -2.4961   -1.5788    0.4637 H   0  0  0  0  0  0  0  0  0  0  0  0
   -4.5629   -1.6395    2.2203 H   0  0  0  0  0  0  0  0  0  0  0  0
   -6.1341   -1.0761    1.7170 H   0  0  0  0  0  0  0  0  0  0  0  0
   -6.4399   -1.0368   -1.0600 H   0  0  0  0  0  0  0  0  0  0  0  0
   -6.4990   -2.7072   -2.8841 H   0  0  0  0  0  0  0  0  0  0  0  0
   -4.0003   -5.3367   -0.6084 H   0  0  0  0  0  0  0  0  0  0  0  0
   -3.9072   -3.6909    1.2351 H   0  0  0  0  0  0  0  0  0  0  0  0
   -5.7437    2.0330   -1.9002 H   0  0  0  0  0  0  0  0  0  0  0  0
   -4.9278    4.1910   -2.8217 H   0  0  0  0  0  0  0  0  0  0  0  0
   -3.6264    5.7362   -1.3811 H   0  0  0  0  0  0  0  0  0  0  0  0
   -3.1359    5.1386    0.9650 H   0  0  0  0  0  0  0  0  0  0  0  0
    2.1375   -2.8745   -0.6539 H   0  0  0  0  0  0  0  0  0  0  0  0
    2.0545   -3.3255    1.0561 H   0  0  0  0  0  0  0  0  0  0  0  0
    4.3985   -2.8914    0.3135 H   0  0  0  0  0  0  0  0  0  0  0  0
    3.8834   -1.8100    1.6331 H   0  0  0  0  0  0  0  0  0  0  0  0
    6.1276   -1.5421    1.4387 H   0  0  0  0  0  0  0  0  0  0  0  0
    8.4021   -0.6758    1.3387 H   0  0  0  0  0  0  0  0  0  0  0  0
  1  2  1  0
  2  3  1  0
  3  4  2  0
  4  5  1  0
  5  6  2  0
  6  7  1  0
  7  8  1  0
  8  9  1  0
  9 10  1  0
 10 11  1  0
 11 12  2  0
 11 13  1  0
 13 14  2  0
 14 15  1  0
 15 16  2  0
 16 17  1  0
 17 18  2  0
 17 19  1  0
 19 20  1  0
 20 21  1  0
 21 22  2  0
 22 23  1  0
 23 24  2  0
 24 25  1  0
 24 26  1  0
 26 27  2  0
 19 28  1  0
 28 29  2  0
 28 30  1  0
 30 31  2  0
 31 32  1  0
 32 33  2  0
 33 34  1  0
 34 35  2  0
 35 36  1  0
 36 37  2  0
 10 38  1  0
 38 39  1  0
  6 40  1  0
 40 41  2  0
 41  3  1  0
 39  7  1  0
 18 13  1  0
 27 21  1  0
 35 30  1  0
 36 16  1  0
  1 42  1  0
  1 43  1  0
  1 44  1  0
  4 45  1  0
  5 46  1  0
  8 47  1  0
  8 48  1  0
  9 49  1  0
  9 50  1  0
 14 51  1  0
 15 52  1  0
 18 53  1  0
 20 54  1  0
 20 55  1  0
 22 56  1  0
 23 57  1  0
 26 58  1  0
 27 59  1  0
 31 60  1  0
 32 61  1  0
 33 62  1  0
 34 63  1  0
 38 64  1  0
 38 65  1  0
 39 66  1  0
 39 67  1  0
 40 68  1  0
 41 69  1  0
M  END
$$$$
