
     RDKit          3D

 48 51  0  0  0  0  0  0  0  0999 V2000
   -5.1051   -2.9322   -3.1249 C   0  0  0  0  0  0  0  0  0  0  0  0
   -5.2239   -1.7501   -2.1954 C   0  0  0  0  0  0  0  0  0  0  0  0
   -6.1979   -1.0075   -2.2506 O   0  0  0  0  0  0  0  0  0  0  0  0
   -4.1332   -1.6284   -1.3606 N   0  0  0  0  0  0  0  0  0  0  0  0
   -3.8907   -0.6490   -0.3704 C   0  0  0  0  0  0  0  0  0  0  0  0
   -4.7797    0.3879   -0.0756 C   0  0  0  0  0  0  0  0  0  0  0  0
   -4.4805    1.3255    0.9231 C   0  0  0  0  0  0  0  0  0  0  0  0
   -5.4289    2.4538    1.2058 C   0  0  0  0  0  0  0  0  0  0  0  0
   -3.2652    1.2311    1.6065 C   0  0  0  0  0  0  0  0  0  0  0  0
   -2.3683    0.1986    1.3218 C   0  0  0  0  0  0  0  0  0  0  0  0
   -2.6774   -0.7502    0.3438 C   0  0  0  0  0  0  0  0  0  0  0  0
   -1.8607   -1.7958   -0.0270 O   0  0  0  0  0  0  0  0  0  0  0  0
   -0.7488   -2.1148    0.8163 C   0  0  0  0  0  0  0  0  0  0  0  0
    0.5239   -1.3673    0.4477 C   0  0  0  0  0  0  0  0  0  0  0  0
    0.6578   -0.6944   -0.7069 C   0  0  0  0  0  0  0  0  0  0  0  0
    1.9185    0.0176   -1.0069 C   0  0  0  0  0  0  0  0  0  0  0  0
    2.0323    0.5850   -2.0895 O   0  0  0  0  0  0  0  0  0  0  0  0
    2.8642   -0.0469   -0.0102 N   0  0  0  0  0  0  0  0  0  0  0  0
    4.1230    0.5385   -0.0241 C   0  0  0  0  0  0  0  0  0  0  0  0
    4.8524    0.2699    1.0721 C   0  0  0  0  0  0  0  0  0  0  0  0
    3.9888   -0.7280    2.2024 S   0  0  0  0  0  0  0  0  0  0  0  0
    2.6021   -0.7815    1.1273 C   0  0  0  0  0  0  0  0  0  0  0  0
    1.5192   -1.4264    1.3992 N   0  0  0  0  0  0  0  0  0  0  0  0
    6.2530    0.7326    1.3003 C   0  0  0  0  0  0  0  0  0  0  0  0
    6.8895    1.2527    0.0055 C   0  0  0  0  0  0  0  0  0  0  0  0
    5.9209    2.1365   -0.7823 C   0  0  0  0  0  0  0  0  0  0  0  0
    4.6261    1.3937   -1.1480 C   0  0  0  0  0  0  0  0  0  0  0  0
   -4.5837   -2.6244   -4.0350 H   0  0  0  0  0  0  0  0  0  0  0  0
   -6.1055   -3.2927   -3.3811 H   0  0  0  0  0  0  0  0  0  0  0  0
   -4.5611   -3.7549   -2.6519 H   0  0  0  0  0  0  0  0  0  0  0  0
   -3.3872   -2.3108   -1.4466 H   0  0  0  0  0  0  0  0  0  0  0  0
   -5.7182    0.4891   -0.6126 H   0  0  0  0  0  0  0  0  0  0  0  0
   -6.4673    2.1330    1.0712 H   0  0  0  0  0  0  0  0  0  0  0  0
   -5.3283    2.8003    2.2397 H   0  0  0  0  0  0  0  0  0  0  0  0
   -5.2253    3.2913    0.5316 H   0  0  0  0  0  0  0  0  0  0  0  0
   -3.0064    1.9655    2.3667 H   0  0  0  0  0  0  0  0  0  0  0  0
   -1.4353    0.1784    1.8753 H   0  0  0  0  0  0  0  0  0  0  0  0
   -1.0022   -1.9947    1.8769 H   0  0  0  0  0  0  0  0  0  0  0  0
   -0.5555   -3.1858    0.6782 H   0  0  0  0  0  0  0  0  0  0  0  0
   -0.1159   -0.6394   -1.4623 H   0  0  0  0  0  0  0  0  0  0  0  0
    6.2466    1.5318    2.0515 H   0  0  0  0  0  0  0  0  0  0  0  0
    6.8721   -0.0813    1.6953 H   0  0  0  0  0  0  0  0  0  0  0  0
    7.1938    0.4040   -0.6205 H   0  0  0  0  0  0  0  0  0  0  0  0
    7.7999    1.8142    0.2440 H   0  0  0  0  0  0  0  0  0  0  0  0
    6.4041    2.5005   -1.6962 H   0  0  0  0  0  0  0  0  0  0  0  0
    5.6742    3.0214   -0.1812 H   0  0  0  0  0  0  0  0  0  0  0  0
    4.8101    0.7586   -2.0229 H   0  0  0  0  0  0  0  0  0  0  0  0
    3.8799    2.1448   -1.4297 H   0  0  0  0  0  0  0  0  0  0  0  0
  1  2  1  0
  2  3  2  0
  2  4  1  0
  4  5  1  0
  5  6  2  0
  6  7  1  0
  7  8  1  0
  7  9  2  0
  9 10  1  0
 10 11  2  0
 11 12  1  0
 12 13  1  0
 13 14  1  0
 14 15  2  0
 15 16  1  0
 16 17  2  0
 16 18  1  0
 18 19  1  0
 19 20  2  0
 20 21  1  0
 21 22  1  0
 22 23  2  0
 20 24  1  0
 24 25  1  0
 25 26  1  0
 26 27  1  0
 11  5  1  0
 23 14  1  0
 22 18  1  0
 27 19  1  0
  1 28  1  0
  1 29  1  0
  1 30  1  0
  4 31  1  0
  6 32  1  0
  8 33  1  0
  8 34  1  0
  8 35  1  0
  9 36  1  0
 10 37  1  0
 13 38  1  0
 13 39  1  0
 15 40  1  0
 24 41  1  0
 24 42  1  0
 25 43  1  0
 25 44  1  0
 26 45  1  0
 26 46  1  0
 27 47  1  0
 27 48  1  0
M  END
$$$$
