
     RDKit          3D

 51 53  0  0  0  0  0  0  0  0999 V2000
   -4.9428    3.2699    0.8337 C   0  0  0  0  0  0  0  0  0  0  0  0
   -4.2341    2.1260    0.3689 O   0  0  0  0  0  0  0  0  0  0  0  0
   -4.9596    1.1879   -0.3340 C   0  0  0  0  0  0  0  0  0  0  0  0
   -6.3259    1.2797   -0.6149 C   0  0  0  0  0  0  0  0  0  0  0  0
   -6.9619    0.2666   -1.3370 C   0  0  0  0  0  0  0  0  0  0  0  0
   -6.2380   -0.8382   -1.7781 C   0  0  0  0  0  0  0  0  0  0  0  0
   -4.8724   -0.9381   -1.5030 C   0  0  0  0  0  0  0  0  0  0  0  0
   -4.2245    0.0684   -0.7844 C   0  0  0  0  0  0  0  0  0  0  0  0
   -2.8479    0.0423   -0.4658 N   0  0  0  0  0  0  0  0  0  0  0  0
   -1.9054   -0.9085   -0.8082 C   0  0  0  0  0  0  0  0  0  0  0  0
   -2.1067   -1.9201   -1.4725 O   0  0  0  0  0  0  0  0  0  0  0  0
   -0.5221   -0.5703   -0.2595 C   0  0  0  0  0  0  0  0  0  0  0  0
   -0.5167   -0.6246    1.2764 C   0  0  0  0  0  0  0  0  0  0  0  0
    0.8309   -1.0678    1.8417 C   0  0  0  0  0  0  0  0  0  0  0  0
    1.9844   -0.5633    0.9865 C   0  0  0  0  0  0  0  0  0  0  0  0
    1.9040   -1.0999   -0.4015 N   0  0  0  0  0  0  0  0  0  0  0  0
    3.1597   -2.1381   -0.9092 S   0  0  0  0  0  6  0  0  0  0  0  0
    3.6145   -2.8992    0.2358 O   0  0  0  0  0  0  0  0  0  0  0  0
    2.6989   -2.8262   -2.0999 O   0  0  0  0  0  0  0  0  0  0  0  0
    4.4503   -1.0109   -1.4611 C   0  0  0  0  0  0  0  0  0  0  0  0
    4.9604   -0.1137   -0.3638 C   0  0  0  0  0  0  0  0  0  0  0  0
    4.6257    1.2514   -0.3534 C   0  0  0  0  0  0  0  0  0  0  0  0
    5.1035    2.0894    0.6563 C   0  0  0  0  0  0  0  0  0  0  0  0
    5.9207    1.5677    1.6518 C   0  0  0  0  0  0  0  0  0  0  0  0
    6.3734    2.3725    2.6228 F   0  0  0  0  0  0  0  0  0  0  0  0
    6.2740    0.2242    1.6546 C   0  0  0  0  0  0  0  0  0  0  0  0
    5.7997   -0.6157    0.6451 C   0  0  0  0  0  0  0  0  0  0  0  0
    0.5336   -1.5106   -0.8445 C   0  0  0  0  0  0  0  0  0  0  0  0
   -5.3488    3.8495   -0.0014 H   0  0  0  0  0  0  0  0  0  0  0  0
   -4.2317    3.9077    1.3657 H   0  0  0  0  0  0  0  0  0  0  0  0
   -5.7289    2.9876    1.5413 H   0  0  0  0  0  0  0  0  0  0  0  0
   -6.9259    2.1227   -0.2886 H   0  0  0  0  0  0  0  0  0  0  0  0
   -8.0245    0.3386   -1.5545 H   0  0  0  0  0  0  0  0  0  0  0  0
   -6.7334   -1.6287   -2.3375 H   0  0  0  0  0  0  0  0  0  0  0  0
   -4.3437   -1.8151   -1.8615 H   0  0  0  0  0  0  0  0  0  0  0  0
   -2.5473    0.8544    0.0640 H   0  0  0  0  0  0  0  0  0  0  0  0
   -0.2826    0.4534   -0.5814 H   0  0  0  0  0  0  0  0  0  0  0  0
   -0.7592    0.3739    1.6637 H   0  0  0  0  0  0  0  0  0  0  0  0
   -1.2980   -1.2930    1.6578 H   0  0  0  0  0  0  0  0  0  0  0  0
    0.8627   -2.1631    1.8909 H   0  0  0  0  0  0  0  0  0  0  0  0
    0.9341   -0.7034    2.8700 H   0  0  0  0  0  0  0  0  0  0  0  0
    1.9574    0.5308    0.9277 H   0  0  0  0  0  0  0  0  0  0  0  0
    2.9254   -0.8290    1.4736 H   0  0  0  0  0  0  0  0  0  0  0  0
    5.2667   -1.6266   -1.8542 H   0  0  0  0  0  0  0  0  0  0  0  0
    4.0404   -0.4353   -2.2976 H   0  0  0  0  0  0  0  0  0  0  0  0
    3.9864    1.6702   -1.1289 H   0  0  0  0  0  0  0  0  0  0  0  0
    4.8457    3.1444    0.6716 H   0  0  0  0  0  0  0  0  0  0  0  0
    6.9144   -0.1633    2.4407 H   0  0  0  0  0  0  0  0  0  0  0  0
    6.0809   -1.6688    0.6595 H   0  0  0  0  0  0  0  0  0  0  0  0
    0.4933   -1.4595   -1.9393 H   0  0  0  0  0  0  0  0  0  0  0  0
    0.3411   -2.5480   -0.5425 H   0  0  0  0  0  0  0  0  0  0  0  0
  1  2  1  0
  2  3  1  0
  3  4  2  0
  4  5  1  0
  5  6  2  0
  6  7  1  0
  7  8  2  0
  8  9  1  0
  9 10  1  0
 10 11  2  0
 10 12  1  0
 12 13  1  0
 13 14  1  0
 14 15  1  0
 15 16  1  0
 16 17  1  0
 17 18  2  0
 17 19  2  0
 17 20  1  0
 20 21  1  0
 21 22  2  0
 22 23  1  0
 23 24  2  0
 24 25  1  0
 24 26  1  0
 26 27  2  0
 16 28  1  0
  8  3  1  0
 28 12  1  0
 27 21  1  0
  1 29  1  0
  1 30  1  0
  1 31  1  0
  4 32  1  0
  5 33  1  0
  6 34  1  0
  7 35  1  0
  9 36  1  0
 12 37  1  0
 13 38  1  0
 13 39  1  0
 14 40  1  0
 14 41  1  0
 15 42  1  0
 15 43  1  0
 20 44  1  0
 20 45  1  0
 22 46  1  0
 23 47  1  0
 26 48  1  0
 27 49  1  0
 28 50  1  0
 28 51  1  0
M  END
$$$$
