
     RDKit          3D

 44 46  0  0  0  0  0  0  0  0999 V2000
    6.9086    2.7369    1.1795 N   0  0  0  0  0  0  0  0  0  0  0  0
    6.9490    1.8273   -0.2380 S   0  0  0  0  0  6  0  0  0  0  0  0
    7.9303    0.7920   -0.0099 O   0  0  0  0  0  0  0  0  0  0  0  0
    7.0288    2.7436   -1.3504 O   0  0  0  0  0  0  0  0  0  0  0  0
    5.3370    1.0905   -0.2281 C   0  0  0  0  0  0  0  0  0  0  0  0
    5.1431   -0.1487    0.3832 C   0  0  0  0  0  0  0  0  0  0  0  0
    3.8684   -0.7260    0.3888 C   0  0  0  0  0  0  0  0  0  0  0  0
    2.7911   -0.0771   -0.2211 C   0  0  0  0  0  0  0  0  0  0  0  0
    1.4792   -0.5887   -0.2610 N   0  0  0  0  0  0  0  0  0  0  0  0
    1.0027   -1.7603    0.2887 C   0  0  0  0  0  0  0  0  0  0  0  0
    1.6688   -2.5641    0.9371 O   0  0  0  0  0  0  0  0  0  0  0  0
   -0.4572   -2.0178    0.0450 C   0  0  0  0  0  0  0  0  0  0  0  0
   -0.9832   -3.1561    0.5346 C   0  0  0  0  0  0  0  0  0  0  0  0
   -2.3723   -3.4869    0.3516 C   0  0  0  0  0  0  0  0  0  0  0  0
   -3.1726   -2.6572   -0.3237 C   0  0  0  0  0  0  0  0  0  0  0  0
   -2.6895   -1.4746   -0.8573 N   0  0  0  0  0  0  0  0  0  0  0  0
   -3.6139   -0.5899   -1.5694 C   0  0  0  0  0  0  0  0  0  0  0  0
   -4.3972    0.2968   -0.6357 C   0  0  0  0  0  0  0  0  0  0  0  0
   -3.8338    1.4684   -0.1091 C   0  0  0  0  0  0  0  0  0  0  0  0
   -4.5657    2.2741    0.7671 C   0  0  0  0  0  0  0  0  0  0  0  0
   -5.8649    1.9175    1.1290 C   0  0  0  0  0  0  0  0  0  0  0  0
   -6.4324    0.7530    0.6159 C   0  0  0  0  0  0  0  0  0  0  0  0
   -5.6976   -0.0452   -0.2564 C   0  0  0  0  0  0  0  0  0  0  0  0
   -6.2599   -1.1650   -0.7342 F   0  0  0  0  0  0  0  0  0  0  0  0
   -1.3573   -1.0829   -0.7083 C   0  0  0  0  0  0  0  0  0  0  0  0
   -0.9064   -0.0281   -1.1603 O   0  0  0  0  0  0  0  0  0  0  0  0
    3.0075    1.1602   -0.8457 C   0  0  0  0  0  0  0  0  0  0  0  0
    4.2762    1.7460   -0.8537 C   0  0  0  0  0  0  0  0  0  0  0  0
    5.9818    2.7812    1.6016 H   0  0  0  0  0  0  0  0  0  0  0  0
    7.6046    2.3642    1.8278 H   0  0  0  0  0  0  0  0  0  0  0  0
    5.9703   -0.6777    0.8521 H   0  0  0  0  0  0  0  0  0  0  0  0
    3.7532   -1.6918    0.8718 H   0  0  0  0  0  0  0  0  0  0  0  0
    0.7956   -0.0166   -0.7598 H   0  0  0  0  0  0  0  0  0  0  0  0
   -0.3771   -3.8692    1.0886 H   0  0  0  0  0  0  0  0  0  0  0  0
   -2.7480   -4.4140    0.7732 H   0  0  0  0  0  0  0  0  0  0  0  0
   -4.2256   -2.8832   -0.4720 H   0  0  0  0  0  0  0  0  0  0  0  0
   -3.0588    0.0386   -2.2770 H   0  0  0  0  0  0  0  0  0  0  0  0
   -4.2856   -1.2009   -2.1862 H   0  0  0  0  0  0  0  0  0  0  0  0
   -2.8199    1.7592   -0.3790 H   0  0  0  0  0  0  0  0  0  0  0  0
   -4.1198    3.1812    1.1688 H   0  0  0  0  0  0  0  0  0  0  0  0
   -6.4321    2.5456    1.8113 H   0  0  0  0  0  0  0  0  0  0  0  0
   -7.4410    0.4610    0.8906 H   0  0  0  0  0  0  0  0  0  0  0  0
    2.1893    1.6820   -1.3383 H   0  0  0  0  0  0  0  0  0  0  0  0
    4.4265    2.7026   -1.3505 H   0  0  0  0  0  0  0  0  0  0  0  0
  1  2  1  0
  2  3  2  0
  2  4  2  0
  2  5  1  0
  5  6  2  0
  6  7  1  0
  7  8  2  0
  8  9  1  0
  9 10  1  0
 10 11  2  0
 10 12  1  0
 12 13  2  0
 13 14  1  0
 14 15  2  0
 15 16  1  0
 16 17  1  0
 17 18  1  0
 18 19  2  0
 19 20  1  0
 20 21  2  0
 21 22  1  0
 22 23  2  0
 23 24  1  0
 16 25  1  0
 25 26  2  0
  8 27  1  0
 27 28  2  0
 28  5  1  0
 25 12  1  0
 23 18  1  0
  1 29  1  0
  1 30  1  0
  6 31  1  0
  7 32  1  0
  9 33  1  0
 13 34  1  0
 14 35  1  0
 15 36  1  0
 17 37  1  0
 17 38  1  0
 19 39  1  0
 20 40  1  0
 21 41  1  0
 22 42  1  0
 27 43  1  0
 28 44  1  0
M  END
$$$$
