
     RDKit          3D

 31 31  0  0  0  0  0  0  0  0999 V2000
    2.2415    1.6581   -0.5174 C   0  0  0  0  0  0  0  0  0  0  0  0
    2.6858    0.7438    0.3622 C   0  0  0  0  0  0  0  0  0  0  0  0
    4.1332    0.6846    0.7869 C   0  0  0  0  0  0  0  0  0  0  0  0
    4.8542   -0.5272    0.2123 C   0  0  0  0  0  0  0  0  0  0  0  0
    1.7662   -0.2310    1.0380 C   0  0  0  0  0  0  0  0  0  0  0  0
    2.0769   -0.7961    2.0817 O   0  0  0  0  0  0  0  0  0  0  0  0
    0.4290   -0.4943    0.4758 C   0  0  0  0  0  0  0  0  0  0  0  0
   -0.6653   -0.0809    1.2442 C   0  0  0  0  0  0  0  0  0  0  0  0
   -1.9666   -0.2982    0.7897 C   0  0  0  0  0  0  0  0  0  0  0  0
   -2.1868   -0.9387   -0.4334 C   0  0  0  0  0  0  0  0  0  0  0  0
   -3.4272   -1.1889   -0.9623 O   0  0  0  0  0  0  0  0  0  0  0  0
   -4.5834   -0.7239   -0.2851 C   0  0  0  0  0  0  0  0  0  0  0  0
   -4.8247    0.7740   -0.3635 C   0  0  0  0  0  0  0  0  0  0  0  0
   -5.1098    1.5002    0.5763 O   0  0  0  0  0  0  0  0  0  0  0  0
   -4.7171    1.2751   -1.6093 O   0  0  0  0  0  0  0  0  0  0  0  0
   -1.0783   -1.3790   -1.1929 C   0  0  0  0  0  0  0  0  0  0  0  0
   -1.3686   -2.1904   -2.7070 Cl  0  0  0  0  0  0  0  0  0  0  0  0
    0.2357   -1.1663   -0.7368 C   0  0  0  0  0  0  0  0  0  0  0  0
    1.5981   -1.7548   -1.6385 Cl  0  0  0  0  0  0  0  0  0  0  0  0
    1.2024    1.7514   -0.8125 H   0  0  0  0  0  0  0  0  0  0  0  0
    2.9286    2.3650   -0.9752 H   0  0  0  0  0  0  0  0  0  0  0  0
    4.6620    1.5899    0.4628 H   0  0  0  0  0  0  0  0  0  0  0  0
    4.2036    0.6739    1.8811 H   0  0  0  0  0  0  0  0  0  0  0  0
    5.9041   -0.5218    0.5225 H   0  0  0  0  0  0  0  0  0  0  0  0
    4.4073   -1.4642    0.5602 H   0  0  0  0  0  0  0  0  0  0  0  0
    4.8260   -0.5211   -0.8825 H   0  0  0  0  0  0  0  0  0  0  0  0
   -0.5037    0.4085    2.2042 H   0  0  0  0  0  0  0  0  0  0  0  0
   -2.7784    0.0428    1.4258 H   0  0  0  0  0  0  0  0  0  0  0  0
   -4.5886   -1.0526    0.7606 H   0  0  0  0  0  0  0  0  0  0  0  0
   -5.4503   -1.2041   -0.7537 H   0  0  0  0  0  0  0  0  0  0  0  0
   -4.9056    2.2317   -1.5141 H   0  0  0  0  0  0  0  0  0  0  0  0
  1  2  2  3
  2  3  1  0
  3  4  1  0
  2  5  1  0
  5  6  2  0
  5  7  1  0
  7  8  2  0
  8  9  1  0
  9 10  2  0
 10 11  1  0
 11 12  1  0
 12 13  1  0
 13 14  2  0
 13 15  1  0
 10 16  1  0
 16 17  1  0
 16 18  2  0
 18 19  1  0
 18  7  1  0
  1 20  1  0
  1 21  1  0
  3 22  1  0
  3 23  1  0
  4 24  1  0
  4 25  1  0
  4 26  1  0
  8 27  1  0
  9 28  1  0
 12 29  1  0
 12 30  1  0
 15 31  1  0
M  END
$$$$
