
     RDKit          3D

 58 62  0  0  0  0  0  0  0  0999 V2000
   -3.7008    4.6429    0.1634 C   0  0  0  0  0  0  0  0  0  0  0  0
   -2.6862    3.6514    0.0741 O   0  0  0  0  0  0  0  0  0  0  0  0
   -3.0560    2.3345    0.0802 C   0  0  0  0  0  0  0  0  0  0  0  0
   -4.3876    1.8989    0.1692 C   0  0  0  0  0  0  0  0  0  0  0  0
   -4.7171    0.5326    0.1716 C   0  0  0  0  0  0  0  0  0  0  0  0
   -6.1039    0.0839    0.2646 C   0  0  0  0  0  0  0  0  0  0  0  0
   -6.7320   -1.1408    0.2974 C   0  0  0  0  0  0  0  0  0  0  0  0
   -8.1088   -0.8378    0.3964 C   0  0  0  0  0  0  0  0  0  0  0  0
   -9.2554   -1.7699    0.4683 C   0  0  0  0  0  0  0  0  0  0  0  0
   -8.3132    0.4832    0.4223 N   0  0  0  0  0  0  0  0  0  0  0  0
   -7.0584    1.0570    0.3398 O   0  0  0  0  0  0  0  0  0  0  0  0
   -3.6761   -0.3985    0.0822 C   0  0  0  0  0  0  0  0  0  0  0  0
   -2.3438    0.0182   -0.0072 C   0  0  0  0  0  0  0  0  0  0  0  0
   -2.0293    1.3793   -0.0085 C   0  0  0  0  0  0  0  0  0  0  0  0
   -0.3461    1.9627   -0.1202 S   0  0  0  0  0  6  0  0  0  0  0  0
   -0.0438    2.6138    1.1386 O   0  0  0  0  0  0  0  0  0  0  0  0
   -0.2258    2.6547   -1.3878 O   0  0  0  0  0  0  0  0  0  0  0  0
    0.6709    0.6211   -0.2155 N   0  0  0  0  0  0  0  0  0  0  0  0
    0.7889   -0.1313   -1.4865 C   0  0  0  0  0  0  0  0  0  0  0  0
    2.1553   -0.8461   -1.5562 C   0  0  0  0  0  0  0  0  0  0  0  0
    2.3839   -1.7044   -0.3784 N   0  0  0  0  0  0  0  0  0  0  0  0
    3.5934   -2.5325   -0.4793 C   0  0  0  0  0  0  0  0  0  0  0  0
    4.9238   -1.8128   -0.5583 C   0  0  0  0  0  0  0  0  0  0  0  0
    5.4709   -1.4532   -1.8134 C   0  0  0  0  0  0  0  0  0  0  0  0
    6.6974   -0.7869   -1.9042 C   0  0  0  0  0  0  0  0  0  0  0  0
    7.3565   -0.4960   -0.7308 C   0  0  0  0  0  0  0  0  0  0  0  0
    6.8401   -0.8451    0.4938 C   0  0  0  0  0  0  0  0  0  0  0  0
    5.6344   -1.5034    0.6146 C   0  0  0  0  0  0  0  0  0  0  0  0
    7.6459   -0.4704    1.5232 O   0  0  0  0  0  0  0  0  0  0  0  0
    8.7227    0.1673    0.8050 C   0  0  0  0  0  0  0  0  0  0  0  0
    8.5521    0.1430   -0.6273 O   0  0  0  0  0  0  0  0  0  0  0  0
    2.3285   -0.8873    0.8490 C   0  0  0  0  0  0  0  0  0  0  0  0
    0.9686   -0.1723    1.0001 C   0  0  0  0  0  0  0  0  0  0  0  0
   -4.3787    4.5916   -0.6948 H   0  0  0  0  0  0  0  0  0  0  0  0
   -3.2132    5.6223    0.1436 H   0  0  0  0  0  0  0  0  0  0  0  0
   -4.2482    4.5629    1.1082 H   0  0  0  0  0  0  0  0  0  0  0  0
   -5.1948    2.6229    0.2387 H   0  0  0  0  0  0  0  0  0  0  0  0
   -6.2719   -2.1159    0.2568 H   0  0  0  0  0  0  0  0  0  0  0  0
   -8.9196   -2.8115    0.4414 H   0  0  0  0  0  0  0  0  0  0  0  0
   -9.9337   -1.6116   -0.3763 H   0  0  0  0  0  0  0  0  0  0  0  0
   -9.8163   -1.6197    1.3964 H   0  0  0  0  0  0  0  0  0  0  0  0
   -3.8843   -1.4664    0.0805 H   0  0  0  0  0  0  0  0  0  0  0  0
   -1.5828   -0.7470   -0.0739 H   0  0  0  0  0  0  0  0  0  0  0  0
    0.7127    0.5418   -2.3458 H   0  0  0  0  0  0  0  0  0  0  0  0
   -0.0121   -0.8718   -1.5671 H   0  0  0  0  0  0  0  0  0  0  0  0
    2.9415   -0.0858   -1.6438 H   0  0  0  0  0  0  0  0  0  0  0  0
    2.1748   -1.4527   -2.4694 H   0  0  0  0  0  0  0  0  0  0  0  0
    3.4988   -3.1923   -1.3526 H   0  0  0  0  0  0  0  0  0  0  0  0
    3.6192   -3.2256    0.3726 H   0  0  0  0  0  0  0  0  0  0  0  0
    4.9341   -1.6936   -2.7291 H   0  0  0  0  0  0  0  0  0  0  0  0
    7.1166   -0.5070   -2.8639 H   0  0  0  0  0  0  0  0  0  0  0  0
    5.2537   -1.7676    1.5953 H   0  0  0  0  0  0  0  0  0  0  0  0
    9.6602   -0.3429    1.0546 H   0  0  0  0  0  0  0  0  0  0  0  0
    8.7929    1.2112    1.1324 H   0  0  0  0  0  0  0  0  0  0  0  0
    3.1213   -0.1289    0.8492 H   0  0  0  0  0  0  0  0  0  0  0  0
    2.4764   -1.5248    1.7287 H   0  0  0  0  0  0  0  0  0  0  0  0
    0.1853   -0.9162    1.1714 H   0  0  0  0  0  0  0  0  0  0  0  0
    1.0192    0.4725    1.8828 H   0  0  0  0  0  0  0  0  0  0  0  0
  1  2  1  0
  2  3  1  0
  3  4  2  0
  4  5  1  0
  5  6  1  0
  6  7  2  0
  7  8  1  0
  8  9  1  0
  8 10  2  0
 10 11  1  0
  5 12  2  0
 12 13  1  0
 13 14  2  0
 14 15  1  0
 15 16  2  0
 15 17  2  0
 15 18  1  0
 18 19  1  0
 19 20  1  0
 20 21  1  0
 21 22  1  0
 22 23  1  0
 23 24  2  0
 24 25  1  0
 25 26  2  0
 26 27  1  0
 27 28  2  0
 27 29  1  0
 29 30  1  0
 30 31  1  0
 21 32  1  0
 32 33  1  0
 14  3  1  0
 33 18  1  0
 11  6  1  0
 28 23  1  0
 31 26  1  0
  1 34  1  0
  1 35  1  0
  1 36  1  0
  4 37  1  0
  7 38  1  0
  9 39  1  0
  9 40  1  0
  9 41  1  0
 12 42  1  0
 13 43  1  0
 19 44  1  0
 19 45  1  0
 20 46  1  0
 20 47  1  0
 22 48  1  0
 22 49  1  0
 24 50  1  0
 25 51  1  0
 28 52  1  0
 30 53  1  0
 30 54  1  0
 32 55  1  0
 32 56  1  0
 33 57  1  0
 33 58  1  0
M  END
$$$$
