
     RDKit          3D

 60 63  0  0  0  0  0  0  0  0999 V2000
  -10.4734   -0.6269    0.8176 C   0  0  0  0  0  0  0  0  0  0  0  0
   -9.2037   -1.4037    0.5717 C   0  0  0  0  0  0  0  0  0  0  0  0
   -9.2113   -2.6289    0.5599 O   0  0  0  0  0  0  0  0  0  0  0  0
   -8.1194   -0.5740    0.3502 N   0  0  0  0  0  0  0  0  0  0  0  0
   -6.7873   -0.9520    0.0759 C   0  0  0  0  0  0  0  0  0  0  0  0
   -6.3578   -2.2701   -0.0151 C   0  0  0  0  0  0  0  0  0  0  0  0
   -5.0213   -2.5440   -0.2904 C   0  0  0  0  0  0  0  0  0  0  0  0
   -4.1054   -1.5027   -0.4782 C   0  0  0  0  0  0  0  0  0  0  0  0
   -4.4963   -0.1581   -0.3980 C   0  0  0  0  0  0  0  0  0  0  0  0
   -3.5637    0.9135   -0.5898 N   0  0  0  0  0  0  0  0  0  0  0  0
   -3.8656    2.2573   -0.5342 C   0  0  0  0  0  0  0  0  0  0  0  0
   -4.9300    2.8272   -0.3492 O   0  0  0  0  0  0  0  0  0  0  0  0
   -2.7183    2.9855   -0.7478 N   0  0  0  0  0  0  0  0  0  0  0  0
   -1.5814    2.1603   -1.0128 C   0  0  0  0  0  0  0  0  0  0  0  0
   -0.4651    2.4052   -0.0056 C   0  0  0  0  0  0  0  0  0  0  0  0
    0.8358    1.6911   -0.3830 C   0  0  0  0  0  0  0  0  0  0  0  0
    1.9774    2.0537    0.5559 C   0  0  0  0  0  0  0  0  0  0  0  0
    1.8544    2.9449    1.3964 O   0  0  0  0  0  0  0  0  0  0  0  0
    3.1561    1.3431    0.4008 N   0  0  0  0  0  0  0  0  0  0  0  0
    3.3685    0.2801   -0.5892 C   0  0  0  0  0  0  0  0  0  0  0  0
    4.8552   -0.0424   -0.8347 C   0  0  0  0  0  0  0  0  0  0  0  0
    5.5523   -0.3508    0.4218 N   0  0  0  0  0  0  0  0  0  0  0  0
    6.7214   -1.0984    0.4399 C   0  0  0  0  0  0  0  0  0  0  0  0
    7.1953   -1.6933    1.6217 C   0  0  0  0  0  0  0  0  0  0  0  0
    8.3695   -2.4559    1.6523 C   0  0  0  0  0  0  0  0  0  0  0  0
    9.1067   -2.6456    0.4907 C   0  0  0  0  0  0  0  0  0  0  0  0
    8.6656   -2.0746   -0.6960 C   0  0  0  0  0  0  0  0  0  0  0  0
    7.4884   -1.3156   -0.7165 C   0  0  0  0  0  0  0  0  0  0  0  0
    5.0853    0.3354    1.6415 C   0  0  0  0  0  0  0  0  0  0  0  0
    4.2723    1.6016    1.3153 C   0  0  0  0  0  0  0  0  0  0  0  0
   -2.2199    0.7740   -0.8889 C   0  0  0  0  0  0  0  0  0  0  0  0
   -1.5656   -0.2487   -1.0614 O   0  0  0  0  0  0  0  0  0  0  0  0
   -5.8544    0.0850   -0.1144 C   0  0  0  0  0  0  0  0  0  0  0  0
  -10.9073   -0.3293   -0.1405 H   0  0  0  0  0  0  0  0  0  0  0  0
  -10.2765    0.2609    1.4251 H   0  0  0  0  0  0  0  0  0  0  0  0
  -11.1860   -1.2563    1.3586 H   0  0  0  0  0  0  0  0  0  0  0  0
   -8.2967    0.4228    0.3839 H   0  0  0  0  0  0  0  0  0  0  0  0
   -7.0341   -3.1079    0.1225 H   0  0  0  0  0  0  0  0  0  0  0  0
   -4.6872   -3.5771   -0.3598 H   0  0  0  0  0  0  0  0  0  0  0  0
   -3.0826   -1.7992   -0.6864 H   0  0  0  0  0  0  0  0  0  0  0  0
   -2.7530    3.9958   -0.8056 H   0  0  0  0  0  0  0  0  0  0  0  0
   -1.2684    2.3349   -2.0468 H   0  0  0  0  0  0  0  0  0  0  0  0
   -0.2782    3.4854    0.0609 H   0  0  0  0  0  0  0  0  0  0  0  0
   -0.7770    2.0870    0.9982 H   0  0  0  0  0  0  0  0  0  0  0  0
    0.6890    0.6079   -0.3470 H   0  0  0  0  0  0  0  0  0  0  0  0
    1.1268    1.9804   -1.3989 H   0  0  0  0  0  0  0  0  0  0  0  0
    2.8958    0.5592   -1.5355 H   0  0  0  0  0  0  0  0  0  0  0  0
    2.8540   -0.6104   -0.2080 H   0  0  0  0  0  0  0  0  0  0  0  0
    4.8956   -0.8936   -1.5251 H   0  0  0  0  0  0  0  0  0  0  0  0
    5.3426    0.8143   -1.3163 H   0  0  0  0  0  0  0  0  0  0  0  0
    6.6377   -1.5949    2.5489 H   0  0  0  0  0  0  0  0  0  0  0  0
    8.6981   -2.9041    2.5858 H   0  0  0  0  0  0  0  0  0  0  0  0
   10.0181   -3.2361    0.5097 H   0  0  0  0  0  0  0  0  0  0  0  0
    9.2350   -2.2129   -1.6110 H   0  0  0  0  0  0  0  0  0  0  0  0
    7.1979   -0.8747   -1.6650 H   0  0  0  0  0  0  0  0  0  0  0  0
    4.4618   -0.3593    2.2176 H   0  0  0  0  0  0  0  0  0  0  0  0
    5.9303    0.6408    2.2707 H   0  0  0  0  0  0  0  0  0  0  0  0
    3.9106    2.0539    2.2450 H   0  0  0  0  0  0  0  0  0  0  0  0
    4.9157    2.3397    0.8201 H   0  0  0  0  0  0  0  0  0  0  0  0
   -6.2263    1.1005   -0.0321 H   0  0  0  0  0  0  0  0  0  0  0  0
  1  2  1  0
  2  3  2  0
  2  4  1  0
  4  5  1  0
  5  6  2  0
  6  7  1  0
  7  8  2  0
  8  9  1  0
  9 10  1  0
 10 11  1  0
 11 12  2  0
 11 13  1  0
 13 14  1  0
 14 15  1  0
 15 16  1  0
 16 17  1  0
 17 18  2  0
 17 19  1  0
 19 20  1  0
 20 21  1  0
 21 22  1  0
 22 23  1  0
 23 24  2  0
 24 25  1  0
 25 26  2  0
 26 27  1  0
 27 28  2  0
 22 29  1  0
 29 30  1  0
 14 31  1  0
 31 32  2  0
  9 33  2  0
 33  5  1  0
 31 10  1  0
 30 19  1  0
 28 23  1  0
  1 34  1  0
  1 35  1  0
  1 36  1  0
  4 37  1  0
  6 38  1  0
  7 39  1  0
  8 40  1  0
 13 41  1  0
 14 42  1  0
 15 43  1  0
 15 44  1  0
 16 45  1  0
 16 46  1  0
 20 47  1  0
 20 48  1  0
 21 49  1  0
 21 50  1  0
 24 51  1  0
 25 52  1  0
 26 53  1  0
 27 54  1  0
 28 55  1  0
 29 56  1  0
 29 57  1  0
 30 58  1  0
 30 59  1  0
 33 60  1  0
M  END
$$$$
