
     RDKit          3D

 60 61  0  0  0  0  0  0  0  0999 V2000
    0.6913    0.0000    0.0000 Cl  0  0  0  0  0  0  0  0  0  0  0  0
    0.6875    0.0000    0.0000 Cl  0  0  0  0  0  0  0  0  0  0  0  0
    8.0130   -0.5003    0.2725 O   0  0  0  0  0  0  0  0  0  0  0  0
    6.7523   -0.4916   -0.3483 C   0  0  0  0  0  0  0  0  0  0  0  0
    5.6499   -0.3064    0.6540 C   0  0  0  0  0  0  0  0  0  0  0  0
    4.3348   -0.2848    0.1062 N   0  0  0  0  0  0  0  0  0  0  0  0
    4.0370    0.8805   -0.6721 C   0  0  0  0  0  0  0  0  0  0  0  0
    2.5523    1.3313   -0.4252 C   0  0  0  0  0  0  0  0  0  0  0  0
    1.8137    0.1332   -0.4739 N   0  0  0  0  0  0  0  0  0  0  0  0
    0.7281   -0.0622   -1.2865 C   0  0  0  0  0  0  0  0  0  0  0  0
   -0.6234    0.5157   -1.0388 C   0  0  0  0  0  0  0  0  0  0  0  0
   -1.2182    0.1309    0.2685 C   0  0  0  0  0  0  0  0  0  0  0  0
   -2.6231    0.3913    0.4571 N   0  0  0  0  0  0  0  0  0  0  0  0
   -3.1604    1.5930    0.9506 C   0  0  0  0  0  0  0  0  0  0  0  0
   -2.2989    2.6812    1.1300 C   0  0  0  0  0  0  0  0  0  0  0  0
   -2.7907    3.9282    1.5258 C   0  0  0  0  0  0  0  0  0  0  0  0
   -4.1274    4.1379    1.7525 C   0  0  0  0  0  0  0  0  0  0  0  0
   -4.9865    3.0819    1.5860 C   0  0  0  0  0  0  0  0  0  0  0  0
   -4.4951    1.8496    1.1974 C   0  0  0  0  0  0  0  0  0  0  0  0
   -5.6594    0.5071    1.0539 S   0  0  0  0  0  0  0  0  0  0  0  0
   -4.8070   -0.8218    0.2732 C   0  0  0  0  0  0  0  0  0  0  0  0
   -5.5025   -1.8920   -0.1896 C   0  0  0  0  0  0  0  0  0  0  0  0
   -4.8999   -2.9852   -0.8231 C   0  0  0  0  0  0  0  0  0  0  0  0
   -3.5309   -2.9534   -0.9840 C   0  0  0  0  0  0  0  0  0  0  0  0
   -2.7767   -4.0705   -1.6710 C   0  0  0  0  0  0  0  0  0  0  0  0
   -2.7378   -5.2180   -0.9443 F   0  0  0  0  0  0  0  0  0  0  0  0
   -1.4854   -3.6439   -1.9163 F   0  0  0  0  0  0  0  0  0  0  0  0
   -3.3539   -4.3584   -2.9010 F   0  0  0  0  0  0  0  0  0  0  0  0
   -2.8419   -1.8469   -0.5046 C   0  0  0  0  0  0  0  0  0  0  0  0
   -3.4581   -0.7706    0.1285 C   0  0  0  0  0  0  0  0  0  0  0  0
    1.9827   -0.7416    0.6607 C   0  0  0  0  0  0  0  0  0  0  0  0
    3.3951   -0.4866    1.1735 C   0  0  0  0  0  0  0  0  0  0  0  0
   -0.6913    0.0000    0.0000 H   0  0  0  0  0  0  0  0  0  0  0  0
   -0.6875    0.0000    0.0000 H   0  0  0  0  0  0  0  0  0  0  0  0
    8.2562    0.4466    0.5099 H   0  0  0  0  0  0  0  0  0  0  0  0
    6.6897   -1.5223   -0.8221 H   0  0  0  0  0  0  0  0  0  0  0  0
    6.7778    0.2543   -1.1376 H   0  0  0  0  0  0  0  0  0  0  0  0
    5.8712    0.6411    1.1936 H   0  0  0  0  0  0  0  0  0  0  0  0
    5.7173   -1.1301    1.4102 H   0  0  0  0  0  0  0  0  0  0  0  0
    4.1436    0.5902   -1.7458 H   0  0  0  0  0  0  0  0  0  0  0  0
    4.7118    1.7114   -0.4547 H   0  0  0  0  0  0  0  0  0  0  0  0
    2.6139    1.8128    0.5605 H   0  0  0  0  0  0  0  0  0  0  0  0
    2.3242    1.9878   -1.2445 H   0  0  0  0  0  0  0  0  0  0  0  0
    1.0000    0.2955   -2.3297 H   0  0  0  0  0  0  0  0  0  0  0  0
    0.6570   -1.1862   -1.4928 H   0  0  0  0  0  0  0  0  0  0  0  0
   -1.2980    0.1569   -1.8625 H   0  0  0  0  0  0  0  0  0  0  0  0
   -0.4999    1.6374   -1.1710 H   0  0  0  0  0  0  0  0  0  0  0  0
   -0.6884    0.7817    1.0250 H   0  0  0  0  0  0  0  0  0  0  0  0
   -0.9174   -0.8816    0.6444 H   0  0  0  0  0  0  0  0  0  0  0  0
   -1.2450    2.5506    0.9457 H   0  0  0  0  0  0  0  0  0  0  0  0
   -2.0724    4.7435    1.6451 H   0  0  0  0  0  0  0  0  0  0  0  0
   -4.4480    5.1353    2.0606 H   0  0  0  0  0  0  0  0  0  0  0  0
   -6.0582    3.2032    1.7460 H   0  0  0  0  0  0  0  0  0  0  0  0
   -6.5832   -1.9892   -0.0965 H   0  0  0  0  0  0  0  0  0  0  0  0
   -5.4301   -3.8267   -1.1933 H   0  0  0  0  0  0  0  0  0  0  0  0
   -1.7896   -1.8505   -0.6595 H   0  0  0  0  0  0  0  0  0  0  0  0
    1.2740   -0.5118    1.4869 H   0  0  0  0  0  0  0  0  0  0  0  0
    1.9507   -1.7837    0.3010 H   0  0  0  0  0  0  0  0  0  0  0  0
    3.4188    0.4114    1.8421 H   0  0  0  0  0  0  0  0  0  0  0  0
    3.7423   -1.4052    1.7222 H   0  0  0  0  0  0  0  0  0  0  0  0
  3  4  1  0
  4  5  1  0
  5  6  1  0
  6  7  1  0
  7  8  1  0
  8  9  1  0
  9 10  1  0
 10 11  1  0
 11 12  1  0
 12 13  1  0
 13 14  1  0
 14 15  2  0
 15 16  1  0
 16 17  2  0
 17 18  1  0
 18 19  2  0
 19 20  1  0
 20 21  1  0
 21 22  2  0
 22 23  1  0
 23 24  2  0
 24 25  1  0
 25 26  1  0
 25 27  1  0
 25 28  1  0
 24 29  1  0
 29 30  2  0
  9 31  1  0
 31 32  1  0
 32  6  1  0
 30 13  1  0
 19 14  1  0
 30 21  1  0
  1 33  1  0
  2 34  1  0
  3 35  1  0
  4 36  1  0
  4 37  1  0
  5 38  1  0
  5 39  1  0
  7 40  1  0
  7 41  1  0
  8 42  1  0
  8 43  1  0
 10 44  1  0
 10 45  1  0
 11 46  1  0
 11 47  1  0
 12 48  1  0
 12 49  1  0
 15 50  1  0
 16 51  1  0
 17 52  1  0
 18 53  1  0
 22 54  1  0
 23 55  1  0
 29 56  1  0
 31 57  1  0
 31 58  1  0
 32 59  1  0
 32 60  1  0
M  END
$$$$
