
     RDKit          3D

 32 34  0  0  0  0  0  0  0  0999 V2000
   -6.9573    0.5717   -0.3415 C   0  0  0  0  0  0  0  0  0  0  0  0
   -5.9795    0.2308    0.6426 O   0  0  0  0  0  0  0  0  0  0  0  0
   -4.7153    0.1265    0.1583 C   0  0  0  0  0  0  0  0  0  0  0  0
   -4.3988    0.3029   -1.0122 O   0  0  0  0  0  0  0  0  0  0  0  0
   -3.8703   -0.2011    1.1753 N   0  0  0  0  0  0  0  0  0  0  0  0
   -2.5261   -0.3801    1.0059 C   0  0  0  0  0  0  0  0  0  0  0  0
   -1.6899   -0.6942    1.9678 N   0  0  0  0  0  0  0  0  0  0  0  0
   -0.4569   -0.7748    1.3676 C   0  0  0  0  0  0  0  0  0  0  0  0
    0.7919   -1.0886    1.9246 C   0  0  0  0  0  0  0  0  0  0  0  0
    1.9187   -1.1068    1.0898 C   0  0  0  0  0  0  0  0  0  0  0  0
    1.8028   -0.8005   -0.2745 C   0  0  0  0  0  0  0  0  0  0  0  0
    2.9906   -0.8414   -1.1688 C   0  0  0  0  0  0  0  0  0  0  0  0
    2.8674   -1.4880   -2.2098 O   0  0  0  0  0  0  0  0  0  0  0  0
    4.2269   -0.1564   -0.8147 C   0  0  0  0  0  0  0  0  0  0  0  0
    5.4813   -0.4129   -1.3404 C   0  0  0  0  0  0  0  0  0  0  0  0
    6.4865    0.4490   -0.8154 C   0  0  0  0  0  0  0  0  0  0  0  0
    5.9660    1.3563    0.0785 C   0  0  0  0  0  0  0  0  0  0  0  0
    4.2779    1.1707    0.2688 S   0  0  0  0  0  0  0  0  0  0  0  0
    0.5554   -0.5080   -0.8529 C   0  0  0  0  0  0  0  0  0  0  0  0
   -0.5452   -0.4987    0.0071 C   0  0  0  0  0  0  0  0  0  0  0  0
   -1.8776   -0.2549   -0.1971 N   0  0  0  0  0  0  0  0  0  0  0  0
   -7.9307    0.6277    0.1536 H   0  0  0  0  0  0  0  0  0  0  0  0
   -7.0066   -0.1997   -1.1163 H   0  0  0  0  0  0  0  0  0  0  0  0
   -6.7350    1.5496   -0.7800 H   0  0  0  0  0  0  0  0  0  0  0  0
   -4.2440   -0.3208    2.1045 H   0  0  0  0  0  0  0  0  0  0  0  0
    0.8726   -1.3192    2.9816 H   0  0  0  0  0  0  0  0  0  0  0  0
    2.8818   -1.3744    1.5189 H   0  0  0  0  0  0  0  0  0  0  0  0
    5.6626   -1.1938   -2.0712 H   0  0  0  0  0  0  0  0  0  0  0  0
    7.5345    0.4101   -1.0870 H   0  0  0  0  0  0  0  0  0  0  0  0
    6.4937    2.1288    0.6214 H   0  0  0  0  0  0  0  0  0  0  0  0
    0.4564   -0.3022   -1.9144 H   0  0  0  0  0  0  0  0  0  0  0  0
   -2.3336   -0.0211   -1.0703 H   0  0  0  0  0  0  0  0  0  0  0  0
  1  2  1  0
  2  3  1  0
  3  4  2  0
  3  5  1  0
  5  6  1  0
  6  7  2  0
  7  8  1  0
  8  9  2  0
  9 10  1  0
 10 11  2  0
 11 12  1  0
 12 13  2  0
 12 14  1  0
 14 15  2  0
 15 16  1  0
 16 17  2  0
 17 18  1  0
 11 19  1  0
 19 20  2  0
 20 21  1  0
 21  6  1  0
 20  8  1  0
 18 14  1  0
  1 22  1  0
  1 23  1  0
  1 24  1  0
  5 25  1  0
  9 26  1  0
 10 27  1  0
 15 28  1  0
 16 29  1  0
 17 30  1  0
 19 31  1  0
 21 32  1  0
M  END
$$$$
