
     RDKit          3D

 38 39  0  0  0  0  0  0  0  0999 V2000
    3.5347    2.3372    1.2851 C   0  0  0  0  0  0  0  0  0  0  0  0
    2.6290    1.3454    0.5774 C   0  0  0  0  0  0  0  0  0  0  0  0
    3.3987    0.2555    0.0512 O   0  0  0  0  0  0  0  0  0  0  0  0
    3.5928   -0.7981    0.8932 C   0  0  0  0  0  0  0  0  0  0  0  0
    3.2543   -0.8175    2.0697 O   0  0  0  0  0  0  0  0  0  0  0  0
    4.4363   -2.1608    0.1887 S   0  0  0  0  0  0  0  0  0  0  0  0
    3.0633   -2.8210   -0.6364 C   0  0  0  0  0  0  0  0  0  0  0  0
    1.8785   -2.3075   -0.5988 N   0  0  0  0  0  0  0  0  0  0  0  0
    1.0166   -3.0595   -1.3607 C   0  0  0  0  0  0  0  0  0  0  0  0
   -0.2809   -2.7838   -1.5661 C   0  0  0  0  0  0  0  0  0  0  0  0
   -0.9986   -1.6275   -1.0097 C   0  0  0  0  0  0  0  0  0  0  0  0
   -0.8961   -1.2516    0.3304 C   0  0  0  0  0  0  0  0  0  0  0  0
   -1.6136   -0.1509    0.8250 C   0  0  0  0  0  0  0  0  0  0  0  0
   -2.4611    0.6190    0.0110 C   0  0  0  0  0  0  0  0  0  0  0  0
   -3.1901    1.7101    0.5008 N   0  0  0  0  0  0  0  0  0  0  0  0
   -3.5503    2.7688   -0.4422 C   0  0  0  0  0  0  0  0  0  0  0  0
   -3.0004    2.1357    1.8844 C   0  0  0  0  0  0  0  0  0  0  0  0
   -2.5732    0.1970   -1.3263 C   0  0  0  0  0  0  0  0  0  0  0  0
   -1.8621   -0.9031   -1.8299 C   0  0  0  0  0  0  0  0  0  0  0  0
    1.6286   -4.2509   -2.0120 C   0  0  0  0  0  0  0  0  0  0  0  0
    1.0811   -5.0719   -2.7261 O   0  0  0  0  0  0  0  0  0  0  0  0
    3.3181   -4.2740   -1.5750 S   0  0  0  0  0  0  0  0  0  0  0  0
    4.0288    1.8738    2.1453 H   0  0  0  0  0  0  0  0  0  0  0  0
    2.9664    3.2053    1.6350 H   0  0  0  0  0  0  0  0  0  0  0  0
    4.3263    2.6839    0.6107 H   0  0  0  0  0  0  0  0  0  0  0  0
    2.1438    1.8319   -0.2751 H   0  0  0  0  0  0  0  0  0  0  0  0
    1.8305    0.9867    1.2383 H   0  0  0  0  0  0  0  0  0  0  0  0
   -0.8746   -3.4277   -2.2141 H   0  0  0  0  0  0  0  0  0  0  0  0
   -0.2585   -1.8056    1.0162 H   0  0  0  0  0  0  0  0  0  0  0  0
   -1.4771    0.0847    1.8768 H   0  0  0  0  0  0  0  0  0  0  0  0
   -2.6651    3.1443   -0.9668 H   0  0  0  0  0  0  0  0  0  0  0  0
   -4.2850    2.4148   -1.1726 H   0  0  0  0  0  0  0  0  0  0  0  0
   -4.0134    3.6212    0.0697 H   0  0  0  0  0  0  0  0  0  0  0  0
   -3.7196    2.9189    2.1536 H   0  0  0  0  0  0  0  0  0  0  0  0
   -1.9920    2.5357    2.0386 H   0  0  0  0  0  0  0  0  0  0  0  0
   -3.1812    1.3119    2.5848 H   0  0  0  0  0  0  0  0  0  0  0  0
   -3.2401    0.7065   -2.0153 H   0  0  0  0  0  0  0  0  0  0  0  0
   -1.9951   -1.1768   -2.8745 H   0  0  0  0  0  0  0  0  0  0  0  0
  1  2  1  0
  2  3  1  0
  3  4  1  0
  4  5  2  0
  4  6  1  0
  6  7  1  0
  7  8  2  0
  8  9  1  0
  9 10  2  0
 10 11  1  0
 11 12  2  0
 12 13  1  0
 13 14  2  0
 14 15  1  0
 15 16  1  0
 15 17  1  0
 14 18  1  0
 18 19  2  0
  9 20  1  0
 20 21  2  0
 20 22  1  0
 22  7  1  0
 19 11  1  0
  1 23  1  0
  1 24  1  0
  1 25  1  0
  2 26  1  0
  2 27  1  0
 10 28  1  0
 12 29  1  0
 13 30  1  0
 16 31  1  0
 16 32  1  0
 16 33  1  0
 17 34  1  0
 17 35  1  0
 17 36  1  0
 18 37  1  0
 19 38  1  0
M  END
$$$$
