
     RDKit          3D

 44 46  0  0  0  0  0  0  0  0999 V2000
   -6.5191    0.1191   -1.7606 C   0  0  0  0  0  0  0  0  0  0  0  0
   -5.2996    0.8495   -1.7931 O   0  0  0  0  0  0  0  0  0  0  0  0
   -4.2309    0.3184   -1.1266 C   0  0  0  0  0  0  0  0  0  0  0  0
   -3.0761    1.0951   -1.1773 C   0  0  0  0  0  0  0  0  0  0  0  0
   -1.9052    0.6690   -0.5504 C   0  0  0  0  0  0  0  0  0  0  0  0
   -1.8792   -0.5482    0.1467 C   0  0  0  0  0  0  0  0  0  0  0  0
   -0.6525   -0.9814    0.7315 N   0  0  0  0  0  0  0  0  0  0  0  0
   -0.1602   -2.2751    0.6862 C   0  0  0  0  0  0  0  0  0  0  0  0
    1.0951   -2.2380    1.2358 C   0  0  0  0  0  0  0  0  0  0  0  0
    1.4057   -0.9728    1.6485 N   0  0  0  0  0  0  0  0  0  0  0  0
    0.3388   -0.2471    1.3742 C   0  0  0  0  0  0  0  0  0  0  0  0
    0.1538    1.3986    1.9123 S   0  0  0  0  0  0  0  0  0  0  0  0
    1.7655    1.7265    2.6792 C   0  0  0  0  0  0  0  0  0  0  0  0
    2.8243    2.0086    1.6244 C   0  0  0  0  0  0  0  0  0  0  0  0
    3.1193    3.1639    1.3314 O   0  0  0  0  0  0  0  0  0  0  0  0
    3.3667    0.8593    1.0976 N   0  0  0  0  0  0  0  0  0  0  0  0
    4.3216    0.8601    0.1253 C   0  0  0  0  0  0  0  0  0  0  0  0
    4.9649    1.8617   -0.4119 N   0  0  0  0  0  0  0  0  0  0  0  0
    5.8482    1.3927   -1.3693 C   0  0  0  0  0  0  0  0  0  0  0  0
    6.6715    2.3792   -2.1111 C   0  0  0  0  0  0  0  0  0  0  0  0
    5.8505    0.0197   -1.5294 C   0  0  0  0  0  0  0  0  0  0  0  0
    4.7216   -0.6951   -0.4555 S   0  0  0  0  0  0  0  0  0  0  0  0
   -3.0438   -1.3414    0.2100 C   0  0  0  0  0  0  0  0  0  0  0  0
   -2.9852   -2.4893    0.9562 O   0  0  0  0  0  0  0  0  0  0  0  0
   -4.1730   -3.2559    1.1100 C   0  0  0  0  0  0  0  0  0  0  0  0
   -4.2117   -0.8956   -0.4343 C   0  0  0  0  0  0  0  0  0  0  0  0
   -6.8856    0.0075   -0.7346 H   0  0  0  0  0  0  0  0  0  0  0  0
   -6.4092   -0.8540   -2.2524 H   0  0  0  0  0  0  0  0  0  0  0  0
   -7.2661    0.6916   -2.3194 H   0  0  0  0  0  0  0  0  0  0  0  0
   -3.0816    2.0366   -1.7222 H   0  0  0  0  0  0  0  0  0  0  0  0
   -1.0177    1.2859   -0.6674 H   0  0  0  0  0  0  0  0  0  0  0  0
   -0.7133   -3.0821    0.2282 H   0  0  0  0  0  0  0  0  0  0  0  0
    1.7908   -3.0602    1.3462 H   0  0  0  0  0  0  0  0  0  0  0  0
    1.6733    2.6164    3.3115 H   0  0  0  0  0  0  0  0  0  0  0  0
    2.0787    0.9074    3.3354 H   0  0  0  0  0  0  0  0  0  0  0  0
    2.9484   -0.0384    1.3306 H   0  0  0  0  0  0  0  0  0  0  0  0
    7.3642    2.8832   -1.4310 H   0  0  0  0  0  0  0  0  0  0  0  0
    7.2563    1.8977   -2.9015 H   0  0  0  0  0  0  0  0  0  0  0  0
    6.0304    3.1344   -2.5754 H   0  0  0  0  0  0  0  0  0  0  0  0
    6.4401   -0.5791   -2.2074 H   0  0  0  0  0  0  0  0  0  0  0  0
   -4.9631   -2.6728    1.5929 H   0  0  0  0  0  0  0  0  0  0  0  0
   -4.5047   -3.6589    0.1490 H   0  0  0  0  0  0  0  0  0  0  0  0
   -3.9395   -4.1027    1.7617 H   0  0  0  0  0  0  0  0  0  0  0  0
   -5.1125   -1.4934   -0.3941 H   0  0  0  0  0  0  0  0  0  0  0  0
  1  2  1  0
  2  3  1  0
  3  4  2  0
  4  5  1  0
  5  6  2  0
  6  7  1  0
  7  8  1  0
  8  9  2  0
  9 10  1  0
 10 11  2  0
 11 12  1  0
 12 13  1  0
 13 14  1  0
 14 15  2  0
 14 16  1  0
 16 17  1  0
 17 18  2  0
 18 19  1  0
 19 20  1  0
 19 21  2  0
 21 22  1  0
  6 23  1  0
 23 24  1  0
 24 25  1  0
 23 26  2  0
 26  3  1  0
 11  7  1  0
 22 17  1  0
  1 27  1  0
  1 28  1  0
  1 29  1  0
  4 30  1  0
  5 31  1  0
  8 32  1  0
  9 33  1  0
 13 34  1  0
 13 35  1  0
 16 36  1  0
 20 37  1  0
 20 38  1  0
 20 39  1  0
 21 40  1  0
 25 41  1  0
 25 42  1  0
 25 43  1  0
 26 44  1  0
M  END
$$$$
