
     RDKit          3D

 43 45  0  0  0  0  0  0  0  0999 V2000
   -6.4050    0.9595    1.1117 C   0  0  0  0  0  0  0  0  0  0  0  0
   -5.0248    0.5881    1.6373 C   0  0  0  0  0  0  0  0  0  0  0  0
   -3.9681    0.7057    0.5951 C   0  0  0  0  0  0  0  0  0  0  0  0
   -3.3141   -0.3303   -0.1065 C   0  0  0  0  0  0  0  0  0  0  0  0
   -2.4350    0.3190   -0.9412 C   0  0  0  0  0  0  0  0  0  0  0  0
   -1.4405   -0.1565   -1.9469 C   0  0  0  0  0  0  0  0  0  0  0  0
   -1.4948    0.6132   -3.2686 C   0  0  0  0  0  0  0  0  0  0  0  0
   -0.4955    1.7493   -3.0736 C   0  0  0  0  0  0  0  0  0  0  0  0
    0.5831    1.1254   -2.1973 C   0  0  0  0  0  0  0  0  0  0  0  0
   -0.0830    0.0599   -1.4580 N   0  0  0  0  0  0  0  0  0  0  0  0
    0.4548   -0.7737   -0.4830 C   0  0  0  0  0  0  0  0  0  0  0  0
   -0.2366   -1.6768   -0.0031 O   0  0  0  0  0  0  0  0  0  0  0  0
    1.8173   -0.5841   -0.0294 C   0  0  0  0  0  0  0  0  0  0  0  0
    2.4838   -1.1644    1.0285 C   0  0  0  0  0  0  0  0  0  0  0  0
    3.7881   -0.6250    0.9807 C   0  0  0  0  0  0  0  0  0  0  0  0
    4.9442   -0.8849    1.8996 C   0  0  0  0  0  0  0  0  0  0  0  0
    4.7127   -0.2521    3.2739 C   0  0  0  0  0  0  0  0  0  0  0  0
    5.2331   -2.3822    2.0429 C   0  0  0  0  0  0  0  0  0  0  0  0
    3.9149    0.2248   -0.0460 N   0  0  0  0  0  0  0  0  0  0  0  0
    2.6834    0.2427   -0.6736 O   0  0  0  0  0  0  0  0  0  0  0  0
   -2.5523    1.6604   -0.7449 O   0  0  0  0  0  0  0  0  0  0  0  0
   -3.5097    1.9085    0.2207 N   0  0  0  0  0  0  0  0  0  0  0  0
   -7.1603    0.8059    1.8880 H   0  0  0  0  0  0  0  0  0  0  0  0
   -6.4370    2.0124    0.8109 H   0  0  0  0  0  0  0  0  0  0  0  0
   -6.6775    0.3529    0.2408 H   0  0  0  0  0  0  0  0  0  0  0  0
   -5.0501   -0.4407    2.0192 H   0  0  0  0  0  0  0  0  0  0  0  0
   -4.7731    1.2332    2.4898 H   0  0  0  0  0  0  0  0  0  0  0  0
   -3.4496   -1.3979   -0.0109 H   0  0  0  0  0  0  0  0  0  0  0  0
   -1.5987   -1.2267   -2.1290 H   0  0  0  0  0  0  0  0  0  0  0  0
   -1.1417   -0.0306   -4.0833 H   0  0  0  0  0  0  0  0  0  0  0  0
   -2.4948    0.9717   -3.5349 H   0  0  0  0  0  0  0  0  0  0  0  0
   -0.0977    2.1292   -4.0203 H   0  0  0  0  0  0  0  0  0  0  0  0
   -0.9678    2.5898   -2.5521 H   0  0  0  0  0  0  0  0  0  0  0  0
    1.3713    0.6755   -2.8105 H   0  0  0  0  0  0  0  0  0  0  0  0
    1.0209    1.8570   -1.5127 H   0  0  0  0  0  0  0  0  0  0  0  0
    2.0688   -1.8739    1.7297 H   0  0  0  0  0  0  0  0  0  0  0  0
    5.8434   -0.4219    1.4714 H   0  0  0  0  0  0  0  0  0  0  0  0
    3.8159   -0.6588    3.7555 H   0  0  0  0  0  0  0  0  0  0  0  0
    5.5645   -0.4328    3.9387 H   0  0  0  0  0  0  0  0  0  0  0  0
    4.5775    0.8331    3.1866 H   0  0  0  0  0  0  0  0  0  0  0  0
    4.3967   -2.9136    2.5116 H   0  0  0  0  0  0  0  0  0  0  0  0
    5.4126   -2.8424    1.0646 H   0  0  0  0  0  0  0  0  0  0  0  0
    6.1208   -2.5480    2.6607 H   0  0  0  0  0  0  0  0  0  0  0  0
  1  2  1  0
  2  3  1  0
  3  4  1  0
  4  5  2  0
  5  6  1  0
  6  7  1  0
  7  8  1  0
  8  9  1  0
  9 10  1  0
 10 11  1  0
 11 12  2  0
 11 13  1  0
 13 14  2  0
 14 15  1  0
 15 16  1  0
 16 17  1  0
 16 18  1  0
 15 19  2  0
 19 20  1  0
  5 21  1  0
 21 22  1  0
 22  3  2  0
 10  6  1  0
 20 13  1  0
  1 23  1  0
  1 24  1  0
  1 25  1  0
  2 26  1  0
  2 27  1  0
  4 28  1  0
  6 29  1  0
  7 30  1  0
  7 31  1  0
  8 32  1  0
  8 33  1  0
  9 34  1  0
  9 35  1  0
 14 36  1  0
 16 37  1  0
 17 38  1  0
 17 39  1  0
 17 40  1  0
 18 41  1  0
 18 42  1  0
 18 43  1  0
M  END
$$$$
