
     RDKit          3D

 50 52  0  0  0  0  0  0  0  0999 V2000
   -1.6624    4.3985   -0.6381 C   0  0  0  0  0  0  0  0  0  0  0  0
   -2.2741    3.0559   -0.4852 C   0  0  0  0  0  0  0  0  0  0  0  0
   -3.6231    2.6988   -0.6386 C   0  0  0  0  0  0  0  0  0  0  0  0
   -3.6740    1.3444   -0.3867 C   0  0  0  0  0  0  0  0  0  0  0  0
   -4.8453    0.4315   -0.3998 C   0  0  0  0  0  0  0  0  0  0  0  0
   -2.3751    0.9463   -0.0711 N   0  0  0  0  0  0  0  0  0  0  0  0
   -1.8836   -0.3714    0.1788 C   0  0  0  0  0  0  0  0  0  0  0  0
   -2.6012   -1.3809   -0.2044 N   0  0  0  0  0  0  0  0  0  0  0  0
   -2.1098   -2.6477   -0.0461 C   0  0  0  0  0  0  0  0  0  0  0  0
   -3.0537   -3.7176   -0.5328 C   0  0  0  0  0  0  0  0  0  0  0  0
   -0.9070   -2.9119    0.4878 C   0  0  0  0  0  0  0  0  0  0  0  0
   -0.2664   -4.2579    0.6450 C   0  0  0  0  0  0  0  0  0  0  0  0
   -0.1097   -1.7602    0.9851 C   0  0  0  0  0  0  0  0  0  0  0  0
    0.9627   -1.9735    1.5487 O   0  0  0  0  0  0  0  0  0  0  0  0
   -0.6424   -0.4960    0.7981 N   0  0  0  0  0  0  0  0  0  0  0  0
    0.0840    0.5822    1.4832 C   0  0  0  0  0  0  0  0  0  0  0  0
    1.2644    1.3152    0.8033 C   0  0  0  0  0  0  0  0  0  0  0  0
    1.6609    2.3754    1.3049 O   0  0  0  0  0  0  0  0  0  0  0  0
    1.9700    0.6403   -0.1999 N   0  0  0  0  0  0  0  0  0  0  0  0
    1.2712    0.2516   -1.4156 C   0  0  0  0  0  0  0  0  0  0  0  0
    3.4126    0.5815   -0.1943 C   0  0  0  0  0  0  0  0  0  0  0  0
    4.1554    0.9539    0.9377 C   0  0  0  0  0  0  0  0  0  0  0  0
    5.5534    0.8731    0.9569 C   0  0  0  0  0  0  0  0  0  0  0  0
    6.2422    0.4025   -0.1541 C   0  0  0  0  0  0  0  0  0  0  0  0
    5.5313    0.0050   -1.2799 C   0  0  0  0  0  0  0  0  0  0  0  0
    4.1329    0.0870   -1.2961 C   0  0  0  0  0  0  0  0  0  0  0  0
   -1.5214    2.0039   -0.1629 N   0  0  0  0  0  0  0  0  0  0  0  0
   -2.0684    4.9086   -1.5176 H   0  0  0  0  0  0  0  0  0  0  0  0
   -1.8721    5.0118    0.2438 H   0  0  0  0  0  0  0  0  0  0  0  0
   -0.5761    4.3326   -0.7590 H   0  0  0  0  0  0  0  0  0  0  0  0
   -4.4532    3.3407   -0.9007 H   0  0  0  0  0  0  0  0  0  0  0  0
   -4.9098   -0.1439    0.5290 H   0  0  0  0  0  0  0  0  0  0  0  0
   -4.7953   -0.2561   -1.2496 H   0  0  0  0  0  0  0  0  0  0  0  0
   -5.7759    1.0016   -0.4940 H   0  0  0  0  0  0  0  0  0  0  0  0
   -4.0915   -3.4352   -0.3205 H   0  0  0  0  0  0  0  0  0  0  0  0
   -2.9513   -3.8467   -1.6151 H   0  0  0  0  0  0  0  0  0  0  0  0
   -2.8934   -4.6827   -0.0448 H   0  0  0  0  0  0  0  0  0  0  0  0
    0.7601   -4.2420    0.2617 H   0  0  0  0  0  0  0  0  0  0  0  0
   -0.2369   -4.5436    1.7015 H   0  0  0  0  0  0  0  0  0  0  0  0
   -0.7852   -5.0472    0.0953 H   0  0  0  0  0  0  0  0  0  0  0  0
   -0.6241    1.3270    1.8603 H   0  0  0  0  0  0  0  0  0  0  0  0
    0.5213    0.1610    2.4000 H   0  0  0  0  0  0  0  0  0  0  0  0
    0.2171    0.5164   -1.3827 H   0  0  0  0  0  0  0  0  0  0  0  0
    1.3684   -0.8275   -1.5659 H   0  0  0  0  0  0  0  0  0  0  0  0
    1.6854    0.7963   -2.2707 H   0  0  0  0  0  0  0  0  0  0  0  0
    3.6696    1.3097    1.8419 H   0  0  0  0  0  0  0  0  0  0  0  0
    6.0967    1.1770    1.8479 H   0  0  0  0  0  0  0  0  0  0  0  0
    7.3266    0.3390   -0.1387 H   0  0  0  0  0  0  0  0  0  0  0  0
    6.0611   -0.3748   -2.1496 H   0  0  0  0  0  0  0  0  0  0  0  0
    3.6350   -0.2520   -2.1984 H   0  0  0  0  0  0  0  0  0  0  0  0
  1  2  1  0
  2  3  1  0
  3  4  2  0
  4  5  1  0
  4  6  1  0
  6  7  1  0
  7  8  2  0
  8  9  1  0
  9 10  1  0
  9 11  2  0
 11 12  1  0
 11 13  1  0
 13 14  2  0
 13 15  1  0
 15 16  1  0
 16 17  1  0
 17 18  2  0
 17 19  1  0
 19 20  1  0
 19 21  1  0
 21 22  2  0
 22 23  1  0
 23 24  2  0
 24 25  1  0
 25 26  2  0
  6 27  1  0
 27  2  2  0
 15  7  1  0
 26 21  1  0
  1 28  1  0
  1 29  1  0
  1 30  1  0
  3 31  1  0
  5 32  1  0
  5 33  1  0
  5 34  1  0
 10 35  1  0
 10 36  1  0
 10 37  1  0
 12 38  1  0
 12 39  1  0
 12 40  1  0
 16 41  1  0
 16 42  1  0
 20 43  1  0
 20 44  1  0
 20 45  1  0
 22 46  1  0
 23 47  1  0
 24 48  1  0
 25 49  1  0
 26 50  1  0
M  END
$$$$
