
     RDKit          3D

 46 48  0  0  0  0  0  0  0  0999 V2000
    1.2421   -2.5748   -2.0273 C   0  0  0  0  0  0  0  0  0  0  0  0
    0.6667   -1.6070   -1.1538 O   0  0  0  0  0  0  0  0  0  0  0  0
    1.5180   -0.8686   -0.3683 C   0  0  0  0  0  0  0  0  0  0  0  0
    2.8950   -1.1239   -0.2816 C   0  0  0  0  0  0  0  0  0  0  0  0
    3.7226   -0.3303    0.5168 C   0  0  0  0  0  0  0  0  0  0  0  0
    3.1797    0.7070    1.2687 C   0  0  0  0  0  0  0  0  0  0  0  0
    1.8101    0.9549    1.2148 C   0  0  0  0  0  0  0  0  0  0  0  0
    0.9651    0.1850    0.3925 C   0  0  0  0  0  0  0  0  0  0  0  0
   -0.4913    0.5681    0.4039 C   0  0  0  0  0  0  0  0  0  0  0  0
   -0.7937    1.6655    0.8615 O   0  0  0  0  0  0  0  0  0  0  0  0
   -1.3768   -0.3580   -0.1117 N   0  0  0  0  0  0  0  0  0  0  0  0
   -2.7887   -0.2892   -0.1729 C   0  0  0  0  0  0  0  0  0  0  0  0
   -3.5194    0.7387    0.4368 C   0  0  0  0  0  0  0  0  0  0  0  0
   -4.9174    0.7781    0.3480 C   0  0  0  0  0  0  0  0  0  0  0  0
   -5.6467    1.8876    1.0149 C   0  0  0  0  0  0  0  0  0  0  0  0
   -6.8284    2.2809    0.4466 N   0  0  0  0  0  0  0  0  0  0  0  0
   -5.2107    2.4531    2.0079 O   0  0  0  0  0  0  0  0  0  0  0  0
   -5.6030   -0.2279   -0.3348 C   0  0  0  0  0  0  0  0  0  0  0  0
   -4.8897   -1.2629   -0.9358 C   0  0  0  0  0  0  0  0  0  0  0  0
   -3.4859   -1.3073   -0.8640 C   0  0  0  0  0  0  0  0  0  0  0  0
   -2.7776   -2.4517   -1.5401 C   0  0  0  0  0  0  0  0  0  0  0  0
    3.9041    1.4462    2.1612 O   0  0  0  0  0  0  0  0  0  0  0  0
    4.9381    2.2011    1.5311 C   0  0  0  0  0  0  0  0  0  0  0  0
    6.1754    1.3574    1.2684 C   0  0  0  0  0  0  0  0  0  0  0  0
    5.9201    0.3415    0.1661 C   0  0  0  0  0  0  0  0  0  0  0  0
    5.0380   -0.7006    0.5856 O   0  0  0  0  0  0  0  0  0  0  0  0
    1.7021   -3.3898   -1.4595 H   0  0  0  0  0  0  0  0  0  0  0  0
    1.9567   -2.1131   -2.7166 H   0  0  0  0  0  0  0  0  0  0  0  0
    0.4331   -3.0039   -2.6262 H   0  0  0  0  0  0  0  0  0  0  0  0
    3.3629   -1.9426   -0.8184 H   0  0  0  0  0  0  0  0  0  0  0  0
    1.3969    1.7530    1.8302 H   0  0  0  0  0  0  0  0  0  0  0  0
   -0.9430   -1.1712   -0.5327 H   0  0  0  0  0  0  0  0  0  0  0  0
   -3.0263    1.5272    0.9985 H   0  0  0  0  0  0  0  0  0  0  0  0
   -7.0444    2.0596   -0.5147 H   0  0  0  0  0  0  0  0  0  0  0  0
   -7.2258    3.1308    0.8268 H   0  0  0  0  0  0  0  0  0  0  0  0
   -6.6882   -0.2351   -0.3797 H   0  0  0  0  0  0  0  0  0  0  0  0
   -5.4390   -2.0448   -1.4569 H   0  0  0  0  0  0  0  0  0  0  0  0
   -2.1134   -2.0752   -2.3245 H   0  0  0  0  0  0  0  0  0  0  0  0
   -2.2000   -3.0279   -0.8101 H   0  0  0  0  0  0  0  0  0  0  0  0
   -3.4839   -3.1418   -2.0140 H   0  0  0  0  0  0  0  0  0  0  0  0
    5.2034    3.0030    2.2294 H   0  0  0  0  0  0  0  0  0  0  0  0
    4.5726    2.6914    0.6186 H   0  0  0  0  0  0  0  0  0  0  0  0
    7.0012    2.0124    0.9704 H   0  0  0  0  0  0  0  0  0  0  0  0
    6.4600    0.8325    2.1877 H   0  0  0  0  0  0  0  0  0  0  0  0
    6.8694   -0.1443   -0.0868 H   0  0  0  0  0  0  0  0  0  0  0  0
    5.5600    0.8172   -0.7563 H   0  0  0  0  0  0  0  0  0  0  0  0
  1  2  1  0
  2  3  1  0
  3  4  2  0
  4  5  1  0
  5  6  2  0
  6  7  1  0
  7  8  2  0
  8  9  1  0
  9 10  2  0
  9 11  1  0
 11 12  1  0
 12 13  2  0
 13 14  1  0
 14 15  1  0
 15 16  1  0
 15 17  2  0
 14 18  2  0
 18 19  1  0
 19 20  2  0
 20 21  1  0
  6 22  1  0
 22 23  1  0
 23 24  1  0
 24 25  1  0
 25 26  1  0
  8  3  1  0
 20 12  1  0
 26  5  1  0
  1 27  1  0
  1 28  1  0
  1 29  1  0
  4 30  1  0
  7 31  1  0
 11 32  1  0
 13 33  1  0
 16 34  1  0
 16 35  1  0
 18 36  1  0
 19 37  1  0
 21 38  1  0
 21 39  1  0
 21 40  1  0
 23 41  1  0
 23 42  1  0
 24 43  1  0
 24 44  1  0
 25 45  1  0
 25 46  1  0
M  END
$$$$
