
     RDKit          3D

 59 62  0  0  0  0  0  0  0  0999 V2000
    6.1969    4.6683   -0.7570 C   0  0  0  0  0  0  0  0  0  0  0  0
    5.3504    3.6370   -1.4789 C   0  0  0  0  0  0  0  0  0  0  0  0
    4.5084    2.9456   -0.5443 O   0  0  0  0  0  0  0  0  0  0  0  0
    5.0614    1.8583    0.0630 C   0  0  0  0  0  0  0  0  0  0  0  0
    6.2050    1.4529   -0.1116 O   0  0  0  0  0  0  0  0  0  0  0  0
    4.0649    1.2343    1.0209 C   0  0  0  0  0  0  0  0  0  0  0  0
    4.5783   -0.0538    1.5028 N   0  0  0  0  0  0  0  0  0  0  0  0
    3.6337   -0.9709    2.5208 S   0  0  0  0  0  6  0  0  0  0  0  0
    4.4917   -1.9668    3.1203 O   0  0  0  0  0  0  0  0  0  0  0  0
    2.8605   -0.0595    3.3357 O   0  0  0  0  0  0  0  0  0  0  0  0
    2.5370   -1.7906    1.3753 C   0  0  0  0  0  0  0  0  0  0  0  0
    1.1979   -1.3647    1.3477 C   0  0  0  0  0  0  0  0  0  0  0  0
    0.2686   -1.9575    0.4811 C   0  0  0  0  0  0  0  0  0  0  0  0
   -1.1217   -1.4860    0.4430 C   0  0  0  0  0  0  0  0  0  0  0  0
   -1.2594   -0.2531   -0.0913 N   0  0  0  0  0  0  0  0  0  0  0  0
   -2.4982    0.3116   -0.2045 N   0  0  0  0  0  0  0  0  0  0  0  0
   -3.6049   -0.3407    0.2111 C   0  0  0  0  0  0  0  0  0  0  0  0
   -4.8809    0.2795    0.1088 N   0  0  0  0  0  0  0  0  0  0  0  0
   -5.2342    1.4457   -0.6092 C   0  0  0  0  0  0  0  0  0  0  0  0
   -6.3852    2.1549   -0.2249 C   0  0  0  0  0  0  0  0  0  0  0  0
   -6.8170    3.2763   -0.9400 C   0  0  0  0  0  0  0  0  0  0  0  0
   -6.1155    3.6928   -2.0668 C   0  0  0  0  0  0  0  0  0  0  0  0
   -4.9981    2.9782   -2.4749 C   0  0  0  0  0  0  0  0  0  0  0  0
   -4.3427    3.4068   -3.5928 O   0  0  0  0  0  0  0  0  0  0  0  0
   -4.5653    1.8553   -1.7696 C   0  0  0  0  0  0  0  0  0  0  0  0
   -3.5096   -1.6392    0.7673 C   0  0  0  0  0  0  0  0  0  0  0  0
   -4.6366   -2.3896    1.1911 C   0  0  0  0  0  0  0  0  0  0  0  0
   -4.5073   -3.6585    1.7570 C   0  0  0  0  0  0  0  0  0  0  0  0
   -3.2482   -4.2154    1.9150 C   0  0  0  0  0  0  0  0  0  0  0  0
   -2.1227   -3.5090    1.4922 C   0  0  0  0  0  0  0  0  0  0  0  0
   -2.2280   -2.2239    0.9014 C   0  0  0  0  0  0  0  0  0  0  0  0
    0.7107   -2.9862   -0.3617 C   0  0  0  0  0  0  0  0  0  0  0  0
    2.0397   -3.4195   -0.3312 C   0  0  0  0  0  0  0  0  0  0  0  0
    2.9764   -2.8271    0.5308 C   0  0  0  0  0  0  0  0  0  0  0  0
    4.3862   -3.3491    0.5201 C   0  0  0  0  0  0  0  0  0  0  0  0
    6.8002    5.2407   -1.4674 H   0  0  0  0  0  0  0  0  0  0  0  0
    5.5623    5.3606   -0.1939 H   0  0  0  0  0  0  0  0  0  0  0  0
    6.8668    4.1910   -0.0346 H   0  0  0  0  0  0  0  0  0  0  0  0
    5.9708    2.9365   -2.0496 H   0  0  0  0  0  0  0  0  0  0  0  0
    4.6900    4.1381   -2.1942 H   0  0  0  0  0  0  0  0  0  0  0  0
    3.1169    1.0847    0.4968 H   0  0  0  0  0  0  0  0  0  0  0  0
    3.9416    1.9234    1.8614 H   0  0  0  0  0  0  0  0  0  0  0  0
    5.5888   -0.1556    1.6150 H   0  0  0  0  0  0  0  0  0  0  0  0
    0.8664   -0.5574    2.0012 H   0  0  0  0  0  0  0  0  0  0  0  0
   -5.3218    0.2628    1.0230 H   0  0  0  0  0  0  0  0  0  0  0  0
   -6.9604    1.8424    0.6429 H   0  0  0  0  0  0  0  0  0  0  0  0
   -7.7017    3.8199   -0.6202 H   0  0  0  0  0  0  0  0  0  0  0  0
   -6.4413    4.5627   -2.6293 H   0  0  0  0  0  0  0  0  0  0  0  0
   -3.5511    2.8546   -3.7094 H   0  0  0  0  0  0  0  0  0  0  0  0
   -3.7096    1.2944   -2.1306 H   0  0  0  0  0  0  0  0  0  0  0  0
   -5.6429   -1.9927    1.0686 H   0  0  0  0  0  0  0  0  0  0  0  0
   -5.3912   -4.2081    2.0717 H   0  0  0  0  0  0  0  0  0  0  0  0
   -3.1374   -5.2005    2.3617 H   0  0  0  0  0  0  0  0  0  0  0  0
   -1.1497   -3.9768    1.6342 H   0  0  0  0  0  0  0  0  0  0  0  0
    0.0186   -3.4564   -1.0591 H   0  0  0  0  0  0  0  0  0  0  0  0
    2.3407   -4.2258   -0.9988 H   0  0  0  0  0  0  0  0  0  0  0  0
    4.5789   -3.9425    1.4188 H   0  0  0  0  0  0  0  0  0  0  0  0
    4.5617   -3.9982   -0.3453 H   0  0  0  0  0  0  0  0  0  0  0  0
    5.1113   -2.5343    0.4460 H   0  0  0  0  0  0  0  0  0  0  0  0
  1  2  1  0
  2  3  1  0
  3  4  1  0
  4  5  2  0
  4  6  1  0
  6  7  1  0
  7  8  1  0
  8  9  2  0
  8 10  2  0
  8 11  1  0
 11 12  2  0
 12 13  1  0
 13 14  1  0
 14 15  2  0
 15 16  1  0
 16 17  2  0
 17 18  1  0
 18 19  1  0
 19 20  2  0
 20 21  1  0
 21 22  2  0
 22 23  1  0
 23 24  1  0
 23 25  2  0
 17 26  1  0
 26 27  2  0
 27 28  1  0
 28 29  2  0
 29 30  1  0
 30 31  2  0
 13 32  2  0
 32 33  1  0
 33 34  2  0
 34 35  1  0
 34 11  1  0
 31 14  1  0
 25 19  1  0
 31 26  1  0
  1 36  1  0
  1 37  1  0
  1 38  1  0
  2 39  1  0
  2 40  1  0
  6 41  1  0
  6 42  1  0
  7 43  1  0
 12 44  1  0
 18 45  1  0
 20 46  1  0
 21 47  1  0
 22 48  1  0
 24 49  1  0
 25 50  1  0
 27 51  1  0
 28 52  1  0
 29 53  1  0
 30 54  1  0
 32 55  1  0
 33 56  1  0
 35 57  1  0
 35 58  1  0
 35 59  1  0
M  END
$$$$
