
     RDKit          3D

 73 76  0  0  0  0  0  0  0  0999 V2000
    2.3072    5.3202    1.8763 C   0  0  0  0  0  0  0  0  0  0  0  0
    1.4162    4.1869    1.4818 C   0  0  0  0  0  0  0  0  0  0  0  0
    0.0676    4.2655    1.7548 C   0  0  0  0  0  0  0  0  0  0  0  0
   -0.8251    3.3324    1.3972 N   0  0  0  0  0  0  0  0  0  0  0  0
   -0.3646    2.2705    0.7301 C   0  0  0  0  0  0  0  0  0  0  0  0
   -1.2124    1.2358    0.3380 N   0  0  0  0  0  0  0  0  0  0  0  0
   -2.5978    1.0609    0.4124 C   0  0  0  0  0  0  0  0  0  0  0  0
   -3.1365   -0.2223    0.2330 C   0  0  0  0  0  0  0  0  0  0  0  0
   -4.5144   -0.4655    0.3503 C   0  0  0  0  0  0  0  0  0  0  0  0
   -5.3819    0.5760    0.6627 C   0  0  0  0  0  0  0  0  0  0  0  0
   -6.7359    0.4888    0.8172 O   0  0  0  0  0  0  0  0  0  0  0  0
   -7.3025   -0.7980    1.0855 C   0  0  0  0  0  0  0  0  0  0  0  0
   -7.8852   -1.3983   -0.2020 C   0  0  0  0  0  0  0  0  0  0  0  0
   -8.6382   -2.6365    0.0291 N   0  0  0  0  0  0  0  0  0  0  0  0
   -9.3233   -3.0930   -1.1818 C   0  0  0  0  0  0  0  0  0  0  0  0
   -9.7484   -4.5009   -0.8023 C   0  0  0  0  0  0  0  0  0  0  0  0
   -8.6616   -4.9868    0.1487 C   0  0  0  0  0  0  0  0  0  0  0  0
   -7.8002   -3.7644    0.4415 C   0  0  0  0  0  0  0  0  0  0  0  0
   -4.8642    1.8600    0.8185 C   0  0  0  0  0  0  0  0  0  0  0  0
   -3.4900    2.0959    0.7037 C   0  0  0  0  0  0  0  0  0  0  0  0
    0.9300    2.1049    0.4224 N   0  0  0  0  0  0  0  0  0  0  0  0
    1.8158    3.0555    0.7828 C   0  0  0  0  0  0  0  0  0  0  0  0
    3.1802    2.9235    0.4297 N   0  0  0  0  0  0  0  0  0  0  0  0
    3.8065    2.0843   -0.5155 C   0  0  0  0  0  0  0  0  0  0  0  0
    3.1250    1.4554   -1.5663 C   0  0  0  0  0  0  0  0  0  0  0  0
    3.8065    0.7118   -2.5389 C   0  0  0  0  0  0  0  0  0  0  0  0
    5.1934    0.6136   -2.4994 C   0  0  0  0  0  0  0  0  0  0  0  0
    5.8885    1.2660   -1.4820 C   0  0  0  0  0  0  0  0  0  0  0  0
    7.6593    1.2079   -1.4641 S   0  0  0  0  0  6  0  0  0  0  0  0
    8.1021    1.6892   -2.7541 O   0  0  0  0  0  0  0  0  0  0  0  0
    8.1380    1.7968   -0.2331 O   0  0  0  0  0  0  0  0  0  0  0  0
    7.9937   -0.4344   -1.4524 N   0  0  0  0  0  0  0  0  0  0  0  0
    8.0739   -1.2781   -0.2407 C   0  0  0  0  0  0  0  0  0  0  0  0
    6.9191   -1.0275    0.7341 C   0  0  0  0  0  0  0  0  0  0  0  0
    7.9839   -2.7357   -0.7267 C   0  0  0  0  0  0  0  0  0  0  0  0
    9.4278   -1.0620    0.4455 C   0  0  0  0  0  0  0  0  0  0  0  0
    5.2075    2.0007   -0.5035 C   0  0  0  0  0  0  0  0  0  0  0  0
    2.1104    5.6113    2.9142 H   0  0  0  0  0  0  0  0  0  0  0  0
    2.1196    6.1868    1.2317 H   0  0  0  0  0  0  0  0  0  0  0  0
    3.3708    5.0773    1.8125 H   0  0  0  0  0  0  0  0  0  0  0  0
   -0.3569    5.1150    2.2834 H   0  0  0  0  0  0  0  0  0  0  0  0
   -0.6627    0.4783   -0.0337 H   0  0  0  0  0  0  0  0  0  0  0  0
   -2.4800   -1.0581    0.0031 H   0  0  0  0  0  0  0  0  0  0  0  0
   -4.8715   -1.4762    0.1863 H   0  0  0  0  0  0  0  0  0  0  0  0
   -8.1174   -0.6260    1.7986 H   0  0  0  0  0  0  0  0  0  0  0  0
   -6.5981   -1.4687    1.5875 H   0  0  0  0  0  0  0  0  0  0  0  0
   -7.0879   -1.5490   -0.9409 H   0  0  0  0  0  0  0  0  0  0  0  0
   -8.5548   -0.6462   -0.6422 H   0  0  0  0  0  0  0  0  0  0  0  0
   -8.6462   -3.1221   -2.0454 H   0  0  0  0  0  0  0  0  0  0  0  0
  -10.1856   -2.4670   -1.4299 H   0  0  0  0  0  0  0  0  0  0  0  0
   -9.8529   -5.1507   -1.6770 H   0  0  0  0  0  0  0  0  0  0  0  0
  -10.7121   -4.4813   -0.2796 H   0  0  0  0  0  0  0  0  0  0  0  0
   -8.0645   -5.7868   -0.3043 H   0  0  0  0  0  0  0  0  0  0  0  0
   -9.1132   -5.3819    1.0644 H   0  0  0  0  0  0  0  0  0  0  0  0
   -6.8726   -3.8166   -0.1450 H   0  0  0  0  0  0  0  0  0  0  0  0
   -7.5366   -3.7158    1.5029 H   0  0  0  0  0  0  0  0  0  0  0  0
   -5.5309    2.6884    1.0464 H   0  0  0  0  0  0  0  0  0  0  0  0
   -3.1378    3.1139    0.8388 H   0  0  0  0  0  0  0  0  0  0  0  0
    3.7606    3.0646    1.2472 H   0  0  0  0  0  0  0  0  0  0  0  0
    2.0470    1.5450   -1.6575 H   0  0  0  0  0  0  0  0  0  0  0  0
    3.2465    0.2328   -3.3370 H   0  0  0  0  0  0  0  0  0  0  0  0
    5.7249    0.0561   -3.2665 H   0  0  0  0  0  0  0  0  0  0  0  0
    8.5948   -0.6909   -2.2362 H   0  0  0  0  0  0  0  0  0  0  0  0
    6.9650   -1.7245    1.5797 H   0  0  0  0  0  0  0  0  0  0  0  0
    5.9484   -1.1660    0.2454 H   0  0  0  0  0  0  0  0  0  0  0  0
    6.9473   -0.0187    1.1565 H   0  0  0  0  0  0  0  0  0  0  0  0
    7.0183   -2.9234   -1.2103 H   0  0  0  0  0  0  0  0  0  0  0  0
    8.7651   -2.9635   -1.4602 H   0  0  0  0  0  0  0  0  0  0  0  0
    8.0875   -3.4415    0.1027 H   0  0  0  0  0  0  0  0  0  0  0  0
    9.5344   -0.0424    0.8283 H   0  0  0  0  0  0  0  0  0  0  0  0
    9.5541   -1.7470    1.2922 H   0  0  0  0  0  0  0  0  0  0  0  0
   10.2530   -1.2423   -0.2509 H   0  0  0  0  0  0  0  0  0  0  0  0
    5.7743    2.5257    0.2618 H   0  0  0  0  0  0  0  0  0  0  0  0
  1  2  1  0
  2  3  2  0
  3  4  1  0
  4  5  2  0
  5  6  1  0
  6  7  1  0
  7  8  2  0
  8  9  1  0
  9 10  2  0
 10 11  1  0
 11 12  1  0
 12 13  1  0
 13 14  1  0
 14 15  1  0
 15 16  1  0
 16 17  1  0
 17 18  1  0
 10 19  1  0
 19 20  2  0
  5 21  1  0
 21 22  2  0
 22 23  1  0
 23 24  1  0
 24 25  2  0
 25 26  1  0
 26 27  2  0
 27 28  1  0
 28 29  1  0
 29 30  2  0
 29 31  2  0
 29 32  1  0
 32 33  1  0
 33 34  1  0
 33 35  1  0
 33 36  1  0
 28 37  2  0
 22  2  1  0
 37 24  1  0
 20  7  1  0
 18 14  1  0
  1 38  1  0
  1 39  1  0
  1 40  1  0
  3 41  1  0
  6 42  1  0
  8 43  1  0
  9 44  1  0
 12 45  1  0
 12 46  1  0
 13 47  1  0
 13 48  1  0
 15 49  1  0
 15 50  1  0
 16 51  1  0
 16 52  1  0
 17 53  1  0
 17 54  1  0
 18 55  1  0
 18 56  1  0
 19 57  1  0
 20 58  1  0
 23 59  1  0
 25 60  1  0
 26 61  1  0
 27 62  1  0
 32 63  1  0
 34 64  1  0
 34 65  1  0
 34 66  1  0
 35 67  1  0
 35 68  1  0
 35 69  1  0
 36 70  1  0
 36 71  1  0
 36 72  1  0
 37 73  1  0
M  END
$$$$
