
     RDKit          3D

 45 47  0  0  0  0  0  0  0  0999 V2000
    5.3951    1.8852    0.4351 C   0  0  0  0  0  0  0  0  0  0  0  0
    4.9166    1.3798   -0.9129 C   0  0  0  0  0  0  0  0  0  0  0  0
    3.9045    0.2648   -0.7327 N   0  0  0  0  0  4  0  0  0  0  0  0
    4.4901   -1.1265   -0.8828 C   0  0  0  0  0  0  0  0  0  0  0  0
    4.7749   -1.7321    0.4788 C   0  0  0  0  0  0  0  0  0  0  0  0
    2.6299    0.4845   -0.5326 C   0  0  0  0  0  0  0  0  0  0  0  0
    2.0520    1.8621   -0.4196 C   0  0  0  0  0  0  0  0  0  0  0  0
    0.7435    2.0764   -0.2495 C   0  0  0  0  0  0  0  0  0  0  0  0
   -0.2298    0.9739   -0.1524 C   0  0  0  0  0  0  0  0  0  0  0  0
   -1.4850    1.2415   -0.0086 N   0  0  0  0  0  0  0  0  0  0  0  0
   -2.3712    0.1400    0.0815 C   0  0  0  0  0  0  0  0  0  0  0  0
   -1.8887   -1.1756    0.0297 C   0  0  0  0  0  0  0  0  0  0  0  0
   -2.7527   -2.2603    0.1158 C   0  0  0  0  0  0  0  0  0  0  0  0
   -4.1324   -2.0616    0.2075 C   0  0  0  0  0  0  0  0  0  0  0  0
   -4.9250   -3.2185    0.3897 N   0  0  0  0  0  0  0  0  0  0  0  0
   -4.6526   -0.7445    0.3266 C   0  0  0  0  0  0  0  0  0  0  0  0
   -6.0289   -0.4768    0.5227 C   0  0  0  0  0  0  0  0  0  0  0  0
   -6.5213    0.8263    0.6174 C   0  0  0  0  0  0  0  0  0  0  0  0
   -5.6514    1.9003    0.5205 C   0  0  0  0  0  0  0  0  0  0  0  0
   -4.2892    1.6690    0.3371 C   0  0  0  0  0  0  0  0  0  0  0  0
   -3.7611    0.3622    0.2435 C   0  0  0  0  0  0  0  0  0  0  0  0
   -0.5502   -1.4709   -0.1062 O   0  0  0  0  0  0  0  0  0  0  0  0
    0.3199   -0.3999   -0.2217 C   0  0  0  0  0  0  0  0  0  0  0  0
    1.6292   -0.6195   -0.3914 C   0  0  0  0  0  0  0  0  0  0  0  0
    0.0000    0.0000    0.0000 Cl  0  0  0  0  0 15  0  0  0  0  0  0
    4.5706    2.2368    1.0631 H   0  0  0  0  0  0  0  0  0  0  0  0
    5.9258    1.1062    0.9905 H   0  0  0  0  0  0  0  0  0  0  0  0
    6.0890    2.7203    0.2947 H   0  0  0  0  0  0  0  0  0  0  0  0
    5.7595    0.9964   -1.4969 H   0  0  0  0  0  0  0  0  0  0  0  0
    4.4627    2.1726   -1.5149 H   0  0  0  0  0  0  0  0  0  0  0  0
    3.7990   -1.7369   -1.4715 H   0  0  0  0  0  0  0  0  0  0  0  0
    5.4124   -1.0566   -1.4685 H   0  0  0  0  0  0  0  0  0  0  0  0
    5.1536   -2.7526    0.3604 H   0  0  0  0  0  0  0  0  0  0  0  0
    5.5334   -1.1605    1.0217 H   0  0  0  0  0  0  0  0  0  0  0  0
    3.8807   -1.7779    1.1082 H   0  0  0  0  0  0  0  0  0  0  0  0
    2.6914    2.7362   -0.4711 H   0  0  0  0  0  0  0  0  0  0  0  0
    0.3326    3.0793   -0.1717 H   0  0  0  0  0  0  0  0  0  0  0  0
   -2.3594   -3.2732    0.0833 H   0  0  0  0  0  0  0  0  0  0  0  0
   -5.8767   -3.0956    0.0553 H   0  0  0  0  0  0  0  0  0  0  0  0
   -4.9531   -3.4788    1.3746 H   0  0  0  0  0  0  0  0  0  0  0  0
   -6.7490   -1.2860    0.6064 H   0  0  0  0  0  0  0  0  0  0  0  0
   -7.5848    0.9974    0.7650 H   0  0  0  0  0  0  0  0  0  0  0  0
   -6.0270    2.9178    0.5910 H   0  0  0  0  0  0  0  0  0  0  0  0
   -3.6258    2.5299    0.2716 H   0  0  0  0  0  0  0  0  0  0  0  0
    1.9488   -1.6548   -0.4232 H   0  0  0  0  0  0  0  0  0  0  0  0
  1  2  1  0
  2  3  1  0
  3  4  1  0
  4  5  1  0
  3  6  2  3
  6  7  1  0
  7  8  2  0
  8  9  1  0
  9 10  2  0
 10 11  1  0
 11 12  2  0
 12 13  1  0
 13 14  2  0
 14 15  1  0
 14 16  1  0
 16 17  2  0
 17 18  1  0
 18 19  2  0
 19 20  1  0
 20 21  2  0
 12 22  1  0
 22 23  1  0
 23 24  2  0
 24  6  1  0
 23  9  1  0
 21 11  1  0
 21 16  1  0
  1 26  1  0
  1 27  1  0
  1 28  1  0
  2 29  1  0
  2 30  1  0
  4 31  1  0
  4 32  1  0
  5 33  1  0
  5 34  1  0
  5 35  1  0
  7 36  1  0
  8 37  1  0
 13 38  1  0
 15 39  1  0
 15 40  1  0
 17 41  1  0
 18 42  1  0
 19 43  1  0
 20 44  1  0
 24 45  1  0
M  CHG  2   3   1  25  -1
M  END
$$$$
