
     RDKit          3D

 42 43  0  0  0  0  0  0  0  0999 V2000
    3.5010    1.6773    0.4291 C   0  0  0  0  0  0  0  0  0  0  0  0
    3.3252    0.2943   -0.1538 N   0  0  0  0  0  4  0  0  0  0  0  0
    4.6675   -0.2773   -0.5496 C   0  0  0  0  0  0  0  0  0  0  0  0
    2.5801   -0.6564    0.7658 C   0  0  0  0  0  0  0  0  0  0  0  0
    1.0888   -0.3454    0.8654 C   0  0  0  0  0  0  0  0  0  0  0  0
    0.3027   -0.7780   -0.3828 C   0  0  0  0  0  0  0  0  0  0  0  0
   -1.1129   -0.3656   -0.2977 N   0  0  0  0  0  0  0  0  0  0  0  0
   -2.0413   -1.3223    0.2151 C   0  0  0  0  0  0  0  0  0  0  0  0
   -1.6277   -2.4558    0.9533 C   0  0  0  0  0  0  0  0  0  0  0  0
   -2.5325   -3.3913    1.4715 C   0  0  0  0  0  0  0  0  0  0  0  0
   -3.8916   -3.2240    1.2723 C   0  0  0  0  0  0  0  0  0  0  0  0
   -4.3384   -2.1200    0.5575 C   0  0  0  0  0  0  0  0  0  0  0  0
   -3.4328   -1.1749    0.0359 C   0  0  0  0  0  0  0  0  0  0  0  0
   -4.1726    0.1573   -0.8754 S   0  0  0  0  0  0  0  0  0  0  0  0
   -2.8007    1.2504   -1.1340 C   0  0  0  0  0  0  0  0  0  0  0  0
   -3.1271    2.5120   -1.6746 C   0  0  0  0  0  0  0  0  0  0  0  0
   -2.1426    3.4560   -1.9460 C   0  0  0  0  0  0  0  0  0  0  0  0
   -0.8259    3.1358   -1.6753 C   0  0  0  0  0  0  0  0  0  0  0  0
    0.4275    4.2750   -1.9830 Cl  0  0  0  0  0  0  0  0  0  0  0  0
   -0.4934    1.8858   -1.1430 C   0  0  0  0  0  0  0  0  0  0  0  0
   -1.4631    0.8997   -0.8583 C   0  0  0  0  0  0  0  0  0  0  0  0
    0.0000    0.0000    0.0000 Cl  0  0  0  0  0 15  0  0  0  0  0  0
    4.0591    1.5928    1.3652 H   0  0  0  0  0  0  0  0  0  0  0  0
    2.5155    2.1146    0.5961 H   0  0  0  0  0  0  0  0  0  0  0  0
    4.0476    2.2832   -0.2987 H   0  0  0  0  0  0  0  0  0  0  0  0
    2.8032    0.4023   -1.0322 H   0  0  0  0  0  0  0  0  0  0  0  0
    5.2688   -0.4106    0.3537 H   0  0  0  0  0  0  0  0  0  0  0  0
    4.4926   -1.2322   -1.0520 H   0  0  0  0  0  0  0  0  0  0  0  0
    5.1439    0.4222   -1.2416 H   0  0  0  0  0  0  0  0  0  0  0  0
    2.7284   -1.6710    0.3790 H   0  0  0  0  0  0  0  0  0  0  0  0
    3.0600   -0.5870    1.7484 H   0  0  0  0  0  0  0  0  0  0  0  0
    0.9227    0.7113    1.0933 H   0  0  0  0  0  0  0  0  0  0  0  0
    0.6967   -0.8847    1.7357 H   0  0  0  0  0  0  0  0  0  0  0  0
    0.7653   -0.3768   -1.2928 H   0  0  0  0  0  0  0  0  0  0  0  0
    0.3998   -1.8607   -0.5344 H   0  0  0  0  0  0  0  0  0  0  0  0
   -0.5849   -2.6523    1.1702 H   0  0  0  0  0  0  0  0  0  0  0  0
   -2.1707   -4.2486    2.0346 H   0  0  0  0  0  0  0  0  0  0  0  0
   -4.6027   -3.9439    1.6694 H   0  0  0  0  0  0  0  0  0  0  0  0
   -5.4098   -1.9978    0.4046 H   0  0  0  0  0  0  0  0  0  0  0  0
   -4.1653    2.7644   -1.8892 H   0  0  0  0  0  0  0  0  0  0  0  0
   -2.4147    4.4230   -2.3603 H   0  0  0  0  0  0  0  0  0  0  0  0
    0.5540    1.7190   -0.9411 H   0  0  0  0  0  0  0  0  0  0  0  0
  1  2  1  0
  2  3  1  0
  2  4  1  0
  4  5  1  0
  5  6  1  0
  6  7  1  0
  7  8  1  0
  8  9  2  0
  9 10  1  0
 10 11  2  0
 11 12  1  0
 12 13  2  0
 13 14  1  0
 14 15  1  0
 15 16  2  0
 16 17  1  0
 17 18  2  0
 18 19  1  0
 18 20  1  0
 20 21  2  0
 21  7  1  0
 13  8  1  0
 21 15  1  0
  1 23  1  0
  1 24  1  0
  1 25  1  0
  2 26  1  0
  3 27  1  0
  3 28  1  0
  3 29  1  0
  4 30  1  0
  4 31  1  0
  5 32  1  0
  5 33  1  0
  6 34  1  0
  6 35  1  0
  9 36  1  0
 10 37  1  0
 11 38  1  0
 12 39  1  0
 16 40  1  0
 17 41  1  0
 20 42  1  0
M  CHG  2   2   1  22  -1
M  END
$$$$
