
     RDKit          3D

 48 52  0  0  0  0  0  0  0  0999 V2000
   -1.2349   -1.8462   -0.4745 O   0  0  0  0  0  0  0  0  0  0  0  0
   -1.8686   -0.8205   -0.2533 C   0  0  0  0  0  0  0  0  0  0  0  0
   -1.3273    0.4336   -0.0518 N   0  0  0  0  0  0  0  0  0  0  0  0
    0.0281    0.8122   -0.1000 C   0  0  0  0  0  0  0  0  0  0  0  0
    0.3321    2.1267    0.2512 C   0  0  0  0  0  0  0  0  0  0  0  0
    1.6556    2.5748    0.2460 C   0  0  0  0  0  0  0  0  0  0  0  0
    2.7130    1.7182   -0.0982 C   0  0  0  0  0  0  0  0  0  0  0  0
    2.4107    0.4137   -0.5125 C   0  0  0  0  0  0  0  0  0  0  0  0
    1.0676   -0.0281   -0.4981 C   0  0  0  0  0  0  0  0  0  0  0  0
    3.3826   -0.5207   -1.1411 C   0  0  0  0  0  0  0  0  0  0  0  0
    2.9849   -1.2779   -2.0249 O   0  0  0  0  0  0  0  0  0  0  0  0
    4.6942   -0.5154   -0.7333 N   0  0  0  0  0  0  0  0  0  0  0  0
    5.6341   -1.5012   -1.2402 C   0  0  0  0  0  0  0  0  0  0  0  0
    6.5874   -1.7336   -0.0811 C   0  0  0  0  0  0  0  0  0  0  0  0
    6.6546   -0.3609    0.5713 C   0  0  0  0  0  0  0  0  0  0  0  0
    5.2224    0.1721    0.4327 C   0  0  1  0  0  0  0  0  0  0  0  0
    5.1912    1.6851    0.2449 C   0  0  0  0  0  0  0  0  0  0  0  0
    6.1678    2.4078    0.4580 O   0  0  0  0  0  0  0  0  0  0  0  0
    3.9911    2.2915   -0.0000 N   0  0  0  0  0  0  0  0  0  0  0  0
   -3.3569   -0.9125   -0.1864 C   0  0  0  0  0  0  0  0  0  0  0  0
   -3.9437   -2.0944   -0.6035 C   0  0  0  0  0  0  0  0  0  0  0  0
   -5.2791   -2.3262   -0.6022 N   0  0  0  0  0  0  0  0  0  0  0  0
   -6.1121   -1.3499   -0.1902 C   0  0  0  0  0  0  0  0  0  0  0  0
   -7.4929   -1.5567   -0.2011 C   0  0  0  0  0  0  0  0  0  0  0  0
   -7.9884   -2.7364   -0.6111 F   0  0  0  0  0  0  0  0  0  0  0  0
   -8.4045   -0.5803    0.1957 C   0  0  0  0  0  0  0  0  0  0  0  0
   -7.9413    0.6565    0.6143 C   0  0  0  0  0  0  0  0  0  0  0  0
   -6.5679    0.8979    0.6422 C   0  0  0  0  0  0  0  0  0  0  0  0
   -5.6319   -0.0988    0.2575 C   0  0  0  0  0  0  0  0  0  0  0  0
   -4.2242    0.0836    0.2746 C   0  0  0  0  0  0  0  0  0  0  0  0
   -3.6856    1.2540    0.7668 O   0  0  0  0  0  0  0  0  0  0  0  0
   -1.9942    1.1613    0.1946 H   0  0  0  0  0  0  0  0  0  0  0  0
   -0.4527    2.8195    0.5449 H   0  0  0  0  0  0  0  0  0  0  0  0
    1.8495    3.6029    0.5462 H   0  0  0  0  0  0  0  0  0  0  0  0
    0.8581   -1.0391   -0.8413 H   0  0  0  0  0  0  0  0  0  0  0  0
    5.1385   -2.4214   -1.5627 H   0  0  0  0  0  0  0  0  0  0  0  0
    6.1513   -1.0535   -2.0960 H   0  0  0  0  0  0  0  0  0  0  0  0
    7.5643   -2.1035   -0.4038 H   0  0  0  0  0  0  0  0  0  0  0  0
    6.1581   -2.4573    0.6222 H   0  0  0  0  0  0  0  0  0  0  0  0
    7.3766    0.2607    0.0276 H   0  0  0  0  0  0  0  0  0  0  0  0
    6.9774   -0.4092    1.6158 H   0  0  0  0  0  0  0  0  0  0  0  0
    4.6220   -0.0992    1.3093 H   0  0  0  0  0  0  0  0  0  0  0  0
    4.0585    3.2984    0.0945 H   0  0  0  0  0  0  0  0  0  0  0  0
   -3.3460   -2.9287   -0.9671 H   0  0  0  0  0  0  0  0  0  0  0  0
   -9.4677   -0.7985    0.1614 H   0  0  0  0  0  0  0  0  0  0  0  0
   -8.6437    1.4324    0.9098 H   0  0  0  0  0  0  0  0  0  0  0  0
   -6.2415    1.8896    0.9462 H   0  0  0  0  0  0  0  0  0  0  0  0
   -4.2667    1.5778    1.4790 H   0  0  0  0  0  0  0  0  0  0  0  0
  1  2  2  0
  2  3  1  0
  3  4  1  0
  4  5  2  0
  5  6  1  0
  6  7  2  0
  7  8  1  0
  8  9  2  0
  8 10  1  0
 10 11  2  0
 10 12  1  0
 12 13  1  0
 13 14  1  0
 14 15  1  0
 15 16  1  0
 16 17  1  0
 17 18  2  0
 17 19  1  0
  2 20  1  0
 20 21  2  0
 21 22  1  0
 22 23  2  0
 23 24  1  0
 24 25  1  0
 24 26  2  0
 26 27  1  0
 27 28  2  0
 28 29  1  0
 29 30  2  0
 30 31  1  0
  9  4  1  0
 16 12  1  0
 30 20  1  0
 19  7  1  0
 29 23  1  0
  3 32  1  0
  5 33  1  0
  6 34  1  0
  9 35  1  0
 13 36  1  0
 13 37  1  0
 14 38  1  0
 14 39  1  0
 15 40  1  0
 15 41  1  0
 16 42  1  1
 19 43  1  0
 21 44  1  0
 26 45  1  0
 27 46  1  0
 28 47  1  0
 31 48  1  0
M  END
$$$$
