
     RDKit          3D

 42 45  0  0  0  0  0  0  0  0999 V2000
   -3.9961   -1.7507    2.2435 C   0  0  0  0  0  0  0  0  0  0  0  0
   -4.1692   -0.3428    1.6884 C   0  0  0  0  0  0  0  0  0  0  0  0
   -3.7747   -0.2734    0.2654 N   0  0  0  0  0  0  0  0  0  0  0  0
   -4.3350    0.8756   -0.4728 C   0  0  0  0  0  0  0  0  0  0  0  0
   -5.7551    0.5661   -0.9273 C   0  0  0  0  0  0  0  0  0  0  0  0
   -2.3759   -0.3614    0.0800 C   0  0  0  0  0  0  0  0  0  0  0  0
   -1.8698   -1.4650   -0.6191 C   0  0  0  0  0  0  0  0  0  0  0  0
   -0.4967   -1.6078   -0.8404 C   0  0  0  0  0  0  0  0  0  0  0  0
    0.3973   -0.6476   -0.3703 C   0  0  0  0  0  0  0  0  0  0  0  0
    1.7693   -0.8235   -0.6107 N   0  0  0  0  0  0  0  0  0  0  0  0
    2.5659    0.0959   -0.1570 C   0  0  0  0  0  0  0  0  0  0  0  0
    4.0288   -0.0210   -0.3719 C   0  0  0  0  0  0  0  0  0  0  0  0
    4.5485   -1.1243   -1.0645 C   0  0  0  0  0  0  0  0  0  0  0  0
    5.9247   -1.2420   -1.2711 C   0  0  0  0  0  0  0  0  0  0  0  0
    6.7896   -0.2611   -0.7889 C   0  0  0  0  0  0  0  0  0  0  0  0
    6.2792    0.8390   -0.0992 C   0  0  0  0  0  0  0  0  0  0  0  0
    4.8981    0.9580    0.1087 C   0  0  0  0  0  0  0  0  0  0  0  0
    4.3772    2.1264    0.8392 C   0  0  0  0  0  0  0  0  0  0  0  0
    5.1173    3.0009    1.2720 O   0  0  0  0  0  0  0  0  0  0  0  0
    2.9241    2.2224    1.0411 C   0  0  0  0  0  0  0  0  0  0  0  0
    2.0776    1.2953    0.5883 C   0  0  0  0  0  0  0  0  0  0  0  0
    0.7156    1.4456    0.8125 O   0  0  0  0  0  0  0  0  0  0  0  0
   -0.1069    0.4582    0.3232 C   0  0  0  0  0  0  0  0  0  0  0  0
   -1.4778    0.6058    0.5473 C   0  0  0  0  0  0  0  0  0  0  0  0
   -4.3892   -1.8045    3.2637 H   0  0  0  0  0  0  0  0  0  0  0  0
   -4.5331   -2.4825    1.6309 H   0  0  0  0  0  0  0  0  0  0  0  0
   -2.9425   -2.0455    2.2768 H   0  0  0  0  0  0  0  0  0  0  0  0
   -5.2294   -0.0825    1.7855 H   0  0  0  0  0  0  0  0  0  0  0  0
   -3.6185    0.3808    2.3016 H   0  0  0  0  0  0  0  0  0  0  0  0
   -4.3254    1.7806    0.1475 H   0  0  0  0  0  0  0  0  0  0  0  0
   -3.7447    1.0898   -1.3741 H   0  0  0  0  0  0  0  0  0  0  0  0
   -5.7792   -0.3398   -1.5422 H   0  0  0  0  0  0  0  0  0  0  0  0
   -6.4286    0.4125   -0.0789 H   0  0  0  0  0  0  0  0  0  0  0  0
   -6.1500    1.3947   -1.5235 H   0  0  0  0  0  0  0  0  0  0  0  0
   -2.5557   -2.2219   -0.9921 H   0  0  0  0  0  0  0  0  0  0  0  0
   -0.1228   -2.4718   -1.3822 H   0  0  0  0  0  0  0  0  0  0  0  0
    3.8854   -1.8984   -1.4469 H   0  0  0  0  0  0  0  0  0  0  0  0
    6.3204   -2.1007   -1.8092 H   0  0  0  0  0  0  0  0  0  0  0  0
    7.8615   -0.3525   -0.9497 H   0  0  0  0  0  0  0  0  0  0  0  0
    6.9596    1.6020    0.2751 H   0  0  0  0  0  0  0  0  0  0  0  0
    2.5737    3.0935    1.5820 H   0  0  0  0  0  0  0  0  0  0  0  0
   -1.8378    1.4778    1.0837 H   0  0  0  0  0  0  0  0  0  0  0  0
  1  2  1  0
  2  3  1  0
  3  4  1  0
  4  5  1  0
  3  6  1  0
  6  7  2  0
  7  8  1  0
  8  9  2  0
  9 10  1  0
 10 11  2  0
 11 12  1  0
 12 13  2  0
 13 14  1  0
 14 15  2  0
 15 16  1  0
 16 17  2  0
 17 18  1  0
 18 19  2  0
 18 20  1  0
 20 21  2  0
 21 22  1  0
 22 23  1  0
 23 24  2  0
 24  6  1  0
 23  9  1  0
 21 11  1  0
 17 12  1  0
  1 25  1  0
  1 26  1  0
  1 27  1  0
  2 28  1  0
  2 29  1  0
  4 30  1  0
  4 31  1  0
  5 32  1  0
  5 33  1  0
  5 34  1  0
  7 35  1  0
  8 36  1  0
 13 37  1  0
 14 38  1  0
 15 39  1  0
 16 40  1  0
 20 41  1  0
 24 42  1  0
M  END
$$$$
