
     RDKit          3D

 45 48  0  0  0  0  0  0  0  0999 V2000
    8.0559   -0.7705    0.0549 C   0  0  0  0  0  0  0  0  0  0  0  0
    6.5787   -0.5763   -0.1179 C   0  0  0  0  0  0  0  0  0  0  0  0
    5.8419   -1.4337   -0.9397 C   0  0  0  0  0  0  0  0  0  0  0  0
    4.4598   -1.2722   -1.0761 C   0  0  0  0  0  0  0  0  0  0  0  0
    3.7882   -0.2526   -0.3813 C   0  0  0  0  0  0  0  0  0  0  0  0
    2.3802   -0.1122   -0.5404 N   0  0  0  0  0  0  0  0  0  0  0  0
    1.6882   -0.9571   -1.3577 N   0  0  0  0  0  0  0  0  0  0  0  0
    0.4082   -0.6203   -1.3329 N   0  0  0  0  0  0  0  0  0  0  0  0
    0.2578    0.4506   -0.4939 C   0  0  0  0  0  0  0  0  0  0  0  0
   -0.8736    1.2066   -0.0946 C   0  0  0  0  0  0  0  0  0  0  0  0
   -2.2013    1.0132   -0.5345 N   0  0  0  0  0  0  0  0  0  0  0  0
   -2.5299   -0.3377   -1.0369 C   0  0  0  0  0  0  0  0  0  0  0  0
   -3.9869   -0.4391   -1.5418 C   0  0  0  0  0  0  0  0  0  0  0  0
   -4.9900    0.1151   -0.5792 N   0  0  0  0  0  0  0  0  0  0  0  0
   -5.4559   -0.8817    0.7116 S   0  0  0  0  0  6  0  0  0  0  0  0
   -6.5446   -2.0314   -0.1030 C   0  0  0  0  0  0  0  0  0  0  0  0
   -4.2923   -1.5998    1.1803 O   0  0  0  0  0  0  0  0  0  0  0  0
   -6.2608   -0.0905    1.6172 O   0  0  0  0  0  0  0  0  0  0  0  0
   -4.6143    1.5158   -0.2080 C   0  0  0  0  0  0  0  0  0  0  0  0
   -3.2025    1.5883    0.3938 C   0  0  0  0  0  0  0  0  0  0  0  0
   -0.6218    2.2411    0.7661 N   0  0  0  0  0  0  0  0  0  0  0  0
    0.6305    2.4784    1.1975 C   0  0  0  0  0  0  0  0  0  0  0  0
    1.7474    1.8104    0.8832 N   0  0  0  0  0  0  0  0  0  0  0  0
    1.4972    0.8008    0.0252 C   0  0  0  0  0  0  0  0  0  0  0  0
    4.5244    0.5960    0.4531 C   0  0  0  0  0  0  0  0  0  0  0  0
    5.9080    0.4294    0.5855 C   0  0  0  0  0  0  0  0  0  0  0  0
    8.5540    0.1833    0.2586 H   0  0  0  0  0  0  0  0  0  0  0  0
    8.5048   -1.1830   -0.8548 H   0  0  0  0  0  0  0  0  0  0  0  0
    8.2485   -1.4552    0.8866 H   0  0  0  0  0  0  0  0  0  0  0  0
    6.3381   -2.2357   -1.4825 H   0  0  0  0  0  0  0  0  0  0  0  0
    3.9258   -1.9590   -1.7309 H   0  0  0  0  0  0  0  0  0  0  0  0
   -1.9029   -0.5857   -1.8992 H   0  0  0  0  0  0  0  0  0  0  0  0
   -2.3425   -1.0831   -0.2568 H   0  0  0  0  0  0  0  0  0  0  0  0
   -4.0864    0.1291   -2.4760 H   0  0  0  0  0  0  0  0  0  0  0  0
   -4.2275   -1.4768   -1.7928 H   0  0  0  0  0  0  0  0  0  0  0  0
   -6.9672   -2.6884    0.6606 H   0  0  0  0  0  0  0  0  0  0  0  0
   -7.3449   -1.4737   -0.5929 H   0  0  0  0  0  0  0  0  0  0  0  0
   -5.9790   -2.6244   -0.8224 H   0  0  0  0  0  0  0  0  0  0  0  0
   -5.3507    1.9448    0.4789 H   0  0  0  0  0  0  0  0  0  0  0  0
   -4.6612    2.1262   -1.1193 H   0  0  0  0  0  0  0  0  0  0  0  0
   -3.1731    1.0558    1.3528 H   0  0  0  0  0  0  0  0  0  0  0  0
   -2.9965    2.6487    0.5847 H   0  0  0  0  0  0  0  0  0  0  0  0
    0.7458    3.3133    1.8827 H   0  0  0  0  0  0  0  0  0  0  0  0
    4.0627    1.3974    1.0211 H   0  0  0  0  0  0  0  0  0  0  0  0
    6.4596    1.0960    1.2458 H   0  0  0  0  0  0  0  0  0  0  0  0
  1  2  1  0
  2  3  2  0
  3  4  1  0
  4  5  2  0
  5  6  1  0
  6  7  1  0
  7  8  2  0
  8  9  1  0
  9 10  2  0
 10 11  1  0
 11 12  1  0
 12 13  1  0
 13 14  1  0
 14 15  1  0
 15 16  1  0
 15 17  2  0
 15 18  2  0
 14 19  1  0
 19 20  1  0
 10 21  1  0
 21 22  2  0
 22 23  1  0
 23 24  2  0
  5 25  1  0
 25 26  2  0
 26  2  1  0
 24  6  1  0
 24  9  1  0
 20 11  1  0
  1 27  1  0
  1 28  1  0
  1 29  1  0
  3 30  1  0
  4 31  1  0
 12 32  1  0
 12 33  1  0
 13 34  1  0
 13 35  1  0
 16 36  1  0
 16 37  1  0
 16 38  1  0
 19 39  1  0
 19 40  1  0
 20 41  1  0
 20 42  1  0
 22 43  1  0
 25 44  1  0
 26 45  1  0
M  END
$$$$
