
     RDKit          3D

 67 70  0  0  0  0  0  0  0  0999 V2000
    1.0198   -6.6304   -0.9392 C   0  0  0  0  0  0  0  0  0  0  0  0
   -0.3329   -6.2055   -0.8782 O   0  0  0  0  0  0  0  0  0  0  0  0
   -0.6054   -5.0187   -0.2333 C   0  0  0  0  0  0  0  0  0  0  0  0
    0.2636   -4.2256    0.4197 C   0  0  0  0  0  0  0  0  0  0  0  0
   -0.0362   -3.0231    1.0666 N   0  0  0  0  0  0  0  0  0  0  0  0
    1.0505   -2.2942    1.7642 C   0  0  0  0  0  0  0  0  0  0  0  0
    1.8225   -1.3459    0.8285 C   0  0  0  0  0  0  0  0  0  0  0  0
    1.3099   -0.8389   -0.1649 O   0  0  0  0  0  0  0  0  0  0  0  0
    3.1207   -1.1155    1.2771 N   0  0  0  0  0  0  0  0  0  0  0  0
    4.1070   -0.3101    0.6689 C   0  0  0  0  0  0  0  0  0  0  0  0
    3.9454    0.3438   -0.5511 C   0  0  0  0  0  0  0  0  0  0  0  0
    4.9789    1.1274   -1.0875 C   0  0  0  0  0  0  0  0  0  0  0  0
    6.1895    1.2716   -0.4120 C   0  0  0  0  0  0  0  0  0  0  0  0
    7.2689    2.0491   -0.8784 N   0  0  0  0  0  0  0  0  0  0  0  0
    7.3496    2.7473   -2.0708 C   0  0  0  0  0  0  0  0  0  0  0  0
    8.6582    3.4858   -2.2034 C   0  0  0  0  0  0  0  0  0  0  0  0
    6.5107    2.7879   -2.9637 O   0  0  0  0  0  0  0  0  0  0  0  0
    6.3536    0.6144    0.8112 C   0  0  0  0  0  0  0  0  0  0  0  0
    5.3246   -0.1720    1.3441 C   0  0  0  0  0  0  0  0  0  0  0  0
   -1.3569   -2.5195    0.9753 C   0  0  0  0  0  0  0  0  0  0  0  0
   -1.6918   -1.1418    1.5661 C   0  0  0  0  0  0  0  0  0  0  0  0
   -2.8738   -0.4674    0.9992 N   0  0  0  0  0  0  0  0  0  0  0  0
   -3.3129    0.6406    1.8776 C   0  0  0  0  0  0  0  0  0  0  0  0
   -4.5212    1.4217    1.3071 C   0  0  0  0  0  0  0  0  0  0  0  0
   -4.2217    1.9272   -0.0539 N   0  0  0  0  0  0  0  0  0  0  0  0
   -5.1820    2.8287   -0.5421 C   0  0  0  0  0  0  0  0  0  0  0  0
   -5.3788    4.0520    0.1270 C   0  0  0  0  0  0  0  0  0  0  0  0
   -6.3138    4.9913   -0.3183 C   0  0  0  0  0  0  0  0  0  0  0  0
   -7.0633    4.7194   -1.4517 C   0  0  0  0  0  0  0  0  0  0  0  0
   -7.9605    5.6151   -1.8839 F   0  0  0  0  0  0  0  0  0  0  0  0
   -6.8899    3.5317   -2.1456 C   0  0  0  0  0  0  0  0  0  0  0  0
   -5.9508    2.5963   -1.6945 C   0  0  0  0  0  0  0  0  0  0  0  0
   -3.7622    0.8486   -0.9564 C   0  0  0  0  0  0  0  0  0  0  0  0
   -2.5584    0.1000   -0.3393 C   0  0  0  0  0  0  0  0  0  0  0  0
   -2.3233   -3.2358    0.3653 C   0  0  0  0  0  0  0  0  0  0  0  0
   -2.0264   -4.5476   -0.2511 C   0  0  0  0  0  0  0  0  0  0  0  0
   -2.9330   -5.2028   -0.7586 O   0  0  0  0  0  0  0  0  0  0  0  0
    1.4151   -6.8252    0.0629 H   0  0  0  0  0  0  0  0  0  0  0  0
    1.6384   -5.8973   -1.4677 H   0  0  0  0  0  0  0  0  0  0  0  0
    1.0545   -7.5676   -1.5023 H   0  0  0  0  0  0  0  0  0  0  0  0
    1.3135   -4.4879    0.4841 H   0  0  0  0  0  0  0  0  0  0  0  0
    1.7511   -3.0215    2.1955 H   0  0  0  0  0  0  0  0  0  0  0  0
    0.6664   -1.7119    2.6093 H   0  0  0  0  0  0  0  0  0  0  0  0
    3.3927   -1.5475    2.1512 H   0  0  0  0  0  0  0  0  0  0  0  0
    3.0277    0.2701   -1.1272 H   0  0  0  0  0  0  0  0  0  0  0  0
    4.7932    1.6161   -2.0398 H   0  0  0  0  0  0  0  0  0  0  0  0
    8.0820    2.0886   -0.2770 H   0  0  0  0  0  0  0  0  0  0  0  0
    8.8717    4.0495   -1.2903 H   0  0  0  0  0  0  0  0  0  0  0  0
    9.4638    2.7720   -2.3963 H   0  0  0  0  0  0  0  0  0  0  0  0
    8.5970    4.1923   -3.0363 H   0  0  0  0  0  0  0  0  0  0  0  0
    7.2827    0.7006    1.3688 H   0  0  0  0  0  0  0  0  0  0  0  0
    5.4949   -0.6668    2.2967 H   0  0  0  0  0  0  0  0  0  0  0  0
   -0.8330   -0.4663    1.4840 H   0  0  0  0  0  0  0  0  0  0  0  0
   -1.8530   -1.3123    2.6395 H   0  0  0  0  0  0  0  0  0  0  0  0
   -2.4843    1.3420    2.0459 H   0  0  0  0  0  0  0  0  0  0  0  0
   -3.6041    0.2370    2.8550 H   0  0  0  0  0  0  0  0  0  0  0  0
   -5.4012    0.7654    1.2730 H   0  0  0  0  0  0  0  0  0  0  0  0
   -4.7438    2.2390    2.0025 H   0  0  0  0  0  0  0  0  0  0  0  0
   -4.7743    4.2944    0.9977 H   0  0  0  0  0  0  0  0  0  0  0  0
   -6.4502    5.9300    0.2079 H   0  0  0  0  0  0  0  0  0  0  0  0
   -7.4826    3.3348   -3.0328 H   0  0  0  0  0  0  0  0  0  0  0  0
   -5.8514    1.6745   -2.2587 H   0  0  0  0  0  0  0  0  0  0  0  0
   -3.4442    1.2699   -1.9178 H   0  0  0  0  0  0  0  0  0  0  0  0
   -4.5720    0.1308   -1.1407 H   0  0  0  0  0  0  0  0  0  0  0  0
   -2.2699   -0.6990   -1.0314 H   0  0  0  0  0  0  0  0  0  0  0  0
   -1.7090    0.7931   -0.2680 H   0  0  0  0  0  0  0  0  0  0  0  0
   -3.3502   -2.9023    0.2841 H   0  0  0  0  0  0  0  0  0  0  0  0
  1  2  1  0
  2  3  1  0
  3  4  2  0
  4  5  1  0
  5  6  1  0
  6  7  1  0
  7  8  2  0
  7  9  1  0
  9 10  1  0
 10 11  2  0
 11 12  1  0
 12 13  2  0
 13 14  1  0
 14 15  1  0
 15 16  1  0
 15 17  2  0
 13 18  1  0
 18 19  2  0
  5 20  1  0
 20 21  1  0
 21 22  1  0
 22 23  1  0
 23 24  1  0
 24 25  1  0
 25 26  1  0
 26 27  2  0
 27 28  1  0
 28 29  2  0
 29 30  1  0
 29 31  1  0
 31 32  2  0
 25 33  1  0
 33 34  1  0
 20 35  2  0
 35 36  1  0
 36 37  2  0
 36  3  1  0
 19 10  1  0
 34 22  1  0
 32 26  1  0
  1 38  1  0
  1 39  1  0
  1 40  1  0
  4 41  1  0
  6 42  1  0
  6 43  1  0
  9 44  1  0
 11 45  1  0
 12 46  1  0
 14 47  1  0
 16 48  1  0
 16 49  1  0
 16 50  1  0
 18 51  1  0
 19 52  1  0
 21 53  1  0
 21 54  1  0
 23 55  1  0
 23 56  1  0
 24 57  1  0
 24 58  1  0
 27 59  1  0
 28 60  1  0
 31 61  1  0
 32 62  1  0
 33 63  1  0
 33 64  1  0
 34 65  1  0
 34 66  1  0
 35 67  1  0
M  END
$$$$
