
     RDKit          3D

 56 59  0  0  0  0  0  0  0  0999 V2000
    4.9086    1.2944   -3.9417 C   0  0  0  0  0  0  0  0  0  0  0  0
    4.2489    1.2325   -2.5823 C   0  0  0  0  0  0  0  0  0  0  0  0
    3.5266    2.1480   -2.1854 O   0  0  0  0  0  0  0  0  0  0  0  0
    4.4976    0.0420   -1.7126 C   0  0  0  0  0  0  0  0  0  0  0  0
    5.4164   -0.9529   -2.0616 C   0  0  0  0  0  0  0  0  0  0  0  0
    5.6346   -2.0320   -1.2050 C   0  0  0  0  0  0  0  0  0  0  0  0
    4.9372   -2.1279   -0.0010 C   0  0  0  0  0  0  0  0  0  0  0  0
    4.0153   -1.1433    0.3633 C   0  0  0  0  0  0  0  0  0  0  0  0
    3.2976   -1.1448    1.5823 N   0  0  0  0  0  0  0  0  0  0  0  0
    3.2394   -2.1459    2.5349 C   0  0  0  0  0  0  0  0  0  0  0  0
    3.7585   -3.2571    2.4480 O   0  0  0  0  0  0  0  0  0  0  0  0
    2.4737   -1.7493    3.7880 C   0  0  0  0  0  0  0  0  0  0  0  0
    0.6831   -1.9908    3.5893 S   0  0  0  0  0  0  0  0  0  0  0  0
    0.2628   -0.5777    2.6922 C   0  0  0  0  0  0  0  0  0  0  0  0
    1.1004    0.3663    2.3356 N   0  0  0  0  0  0  0  0  0  0  0  0
    0.4210    1.2458    1.5431 N   0  0  0  0  0  0  0  0  0  0  0  0
   -0.8322    0.8320    1.4295 C   0  0  0  0  0  0  0  0  0  0  0  0
   -1.9225    1.5327    0.6505 C   0  0  0  0  0  0  0  0  0  0  0  0
   -1.3663    2.6476   -0.2441 C   0  0  0  0  0  0  0  0  0  0  0  0
   -2.7725    0.6047   -0.1259 N   0  0  0  0  0  0  0  0  0  0  0  0
   -2.1675   -0.2527   -1.0474 C   0  0  0  0  0  0  0  0  0  0  0  0
   -0.9518   -0.3554   -1.2098 O   0  0  0  0  0  0  0  0  0  0  0  0
   -3.1165   -1.1820   -1.7861 C   0  0  0  0  0  0  0  0  0  0  0  0
   -4.3942   -0.6944   -2.1256 O   0  0  0  0  0  0  0  0  0  0  0  0
   -4.9405    0.0951   -1.1523 C   0  0  0  0  0  0  0  0  0  0  0  0
   -6.3263    0.2525   -1.2540 C   0  0  0  0  0  0  0  0  0  0  0  0
   -7.0068    1.0563   -0.3484 C   0  0  0  0  0  0  0  0  0  0  0  0
   -6.2968    1.7051    0.6535 C   0  0  0  0  0  0  0  0  0  0  0  0
   -4.9077    1.5568    0.7476 C   0  0  0  0  0  0  0  0  0  0  0  0
   -4.1980    0.7535   -0.1585 C   0  0  0  0  0  0  0  0  0  0  0  0
   -0.9846   -0.2965    2.2106 N   0  0  0  0  0  0  0  0  0  0  0  0
   -2.2073   -1.0176    2.4631 C   0  0  0  0  0  0  0  0  0  0  0  0
    3.8014   -0.0591   -0.4993 C   0  0  0  0  0  0  0  0  0  0  0  0
    4.6604    0.4033   -4.5325 H   0  0  0  0  0  0  0  0  0  0  0  0
    5.9924    1.4039   -3.8292 H   0  0  0  0  0  0  0  0  0  0  0  0
    4.5281    2.1657   -4.4839 H   0  0  0  0  0  0  0  0  0  0  0  0
    5.9862   -0.9082   -2.9869 H   0  0  0  0  0  0  0  0  0  0  0  0
    6.3561   -2.8001   -1.4644 H   0  0  0  0  0  0  0  0  0  0  0  0
    5.1488   -2.9739    0.6454 H   0  0  0  0  0  0  0  0  0  0  0  0
    2.6693   -0.3487    1.7222 H   0  0  0  0  0  0  0  0  0  0  0  0
    2.8141   -2.3920    4.6063 H   0  0  0  0  0  0  0  0  0  0  0  0
    2.7168   -0.7211    4.0769 H   0  0  0  0  0  0  0  0  0  0  0  0
   -2.5107    2.0252    1.4229 H   0  0  0  0  0  0  0  0  0  0  0  0
   -0.6802    2.2636   -1.0050 H   0  0  0  0  0  0  0  0  0  0  0  0
   -0.8164    3.3891    0.3463 H   0  0  0  0  0  0  0  0  0  0  0  0
   -2.1799    3.1716   -0.7597 H   0  0  0  0  0  0  0  0  0  0  0  0
   -2.6239   -1.4636   -2.7226 H   0  0  0  0  0  0  0  0  0  0  0  0
   -3.2273   -2.0972   -1.1885 H   0  0  0  0  0  0  0  0  0  0  0  0
   -6.8676   -0.2513   -2.0490 H   0  0  0  0  0  0  0  0  0  0  0  0
   -8.0824    1.1761   -0.4324 H   0  0  0  0  0  0  0  0  0  0  0  0
   -6.8179    2.3406    1.3671 H   0  0  0  0  0  0  0  0  0  0  0  0
   -4.4360    2.0927    1.5617 H   0  0  0  0  0  0  0  0  0  0  0  0
   -2.3867   -1.7019    1.6294 H   0  0  0  0  0  0  0  0  0  0  0  0
   -3.0277   -0.3019    2.5654 H   0  0  0  0  0  0  0  0  0  0  0  0
   -2.1309   -1.5768    3.3997 H   0  0  0  0  0  0  0  0  0  0  0  0
    3.0840    0.7193   -0.2297 H   0  0  0  0  0  0  0  0  0  0  0  0
  1  2  1  0
  2  3  2  0
  2  4  1  0
  4  5  2  0
  5  6  1  0
  6  7  2  0
  7  8  1  0
  8  9  1  0
  9 10  1  0
 10 11  2  0
 10 12  1  0
 12 13  1  0
 13 14  1  0
 14 15  2  0
 15 16  1  0
 16 17  2  0
 17 18  1  0
 18 19  1  0
 18 20  1  0
 20 21  1  0
 21 22  2  0
 21 23  1  0
 23 24  1  0
 24 25  1  0
 25 26  2  0
 26 27  1  0
 27 28  2  0
 28 29  1  0
 29 30  2  0
 17 31  1  0
 31 32  1  0
  8 33  2  0
 33  4  1  0
 31 14  1  0
 30 20  1  0
 30 25  1  0
  1 34  1  0
  1 35  1  0
  1 36  1  0
  5 37  1  0
  6 38  1  0
  7 39  1  0
  9 40  1  0
 12 41  1  0
 12 42  1  0
 18 43  1  0
 19 44  1  0
 19 45  1  0
 19 46  1  0
 23 47  1  0
 23 48  1  0
 26 49  1  0
 27 50  1  0
 28 51  1  0
 29 52  1  0
 32 53  1  0
 32 54  1  0
 32 55  1  0
 33 56  1  0
M  END
$$$$
