
     RDKit          3D

 53 57  0  0  0  0  0  0  0  0999 V2000
    2.8535   -0.7556    2.6414 O   0  0  0  0  0  0  0  0  0  0  0  0
    2.5482   -0.6158    1.4605 C   0  0  0  0  0  0  0  0  0  0  0  0
    3.4713   -0.6868    0.4514 N   0  0  0  0  0  0  0  0  0  0  0  0
    4.8826   -0.8304    0.7680 C   0  0  0  0  0  0  0  0  0  0  0  0
    5.7052   -1.0576   -0.5057 C   0  0  0  0  0  0  0  0  0  0  0  0
    7.1958   -1.1836   -0.2295 C   0  0  0  0  0  0  0  0  0  0  0  0
    7.6844    0.2355   -0.3796 C   0  0  0  0  0  0  0  0  0  0  0  0
    6.8109    0.7495   -1.5012 C   0  0  0  0  0  0  0  0  0  0  0  0
    5.5425    0.0924   -1.3695 O   0  0  0  0  0  0  0  0  0  0  0  0
    1.2544   -0.3857    1.0417 N   0  0  0  0  0  0  0  0  0  0  0  0
    0.2044   -0.2335    2.0477 C   0  0  0  0  0  0  0  0  0  0  0  0
   -0.9384    0.6741    1.5657 C   0  0  0  0  0  0  0  0  0  0  0  0
   -1.5111    0.2405    0.2783 N   0  0  0  0  0  0  0  0  0  0  0  0
   -2.8833    0.3001    0.0425 C   0  0  0  0  0  0  0  0  0  0  0  0
   -3.4302   -0.6817   -0.6337 N   0  0  0  0  0  0  0  0  0  0  0  0
   -4.8152   -0.7147   -0.8773 C   0  0  0  0  0  0  0  0  0  0  0  0
   -5.3355   -1.7956   -1.5886 C   0  0  0  0  0  0  0  0  0  0  0  0
   -6.7016   -1.8696   -1.8386 C   0  0  0  0  0  0  0  0  0  0  0  0
   -7.1909   -2.9124   -2.5227 F   0  0  0  0  0  0  0  0  0  0  0  0
   -7.5723   -0.8805   -1.3905 C   0  0  0  0  0  0  0  0  0  0  0  0
   -7.0725    0.2089   -0.6777 C   0  0  0  0  0  0  0  0  0  0  0  0
   -5.6975    0.2794   -0.4280 C   0  0  0  0  0  0  0  0  0  0  0  0
   -5.1042    1.3457    0.2679 N   0  0  0  0  0  0  0  0  0  0  0  0
   -5.6908    2.4685    0.8010 C   0  0  0  0  0  0  0  0  0  0  0  0
   -4.6968    3.2682    1.3190 C   0  0  0  0  0  0  0  0  0  0  0  0
   -3.4693    2.5990    1.1061 C   0  0  0  0  0  0  0  0  0  0  0  0
   -3.7432    1.3892    0.4903 C   0  0  0  0  0  0  0  0  0  0  0  0
   -0.6990   -0.7257   -0.4861 C   0  0  0  0  0  0  0  0  0  0  0  0
    0.8033   -0.4351   -0.3536 C   0  0  0  0  0  0  0  0  0  0  0  0
    3.2947   -0.0676   -0.3276 H   0  0  0  0  0  0  0  0  0  0  0  0
    5.1870    0.0923    1.2755 H   0  0  0  0  0  0  0  0  0  0  0  0
    5.0042   -1.6657    1.4664 H   0  0  0  0  0  0  0  0  0  0  0  0
    5.3280   -1.9384   -1.0375 H   0  0  0  0  0  0  0  0  0  0  0  0
    7.4313   -1.6268    0.7422 H   0  0  0  0  0  0  0  0  0  0  0  0
    7.6591   -1.8079   -1.0036 H   0  0  0  0  0  0  0  0  0  0  0  0
    8.7519    0.3103   -0.6025 H   0  0  0  0  0  0  0  0  0  0  0  0
    7.4861    0.7981    0.5400 H   0  0  0  0  0  0  0  0  0  0  0  0
    6.6700    1.8332   -1.4631 H   0  0  0  0  0  0  0  0  0  0  0  0
    7.2251    0.4843   -2.4799 H   0  0  0  0  0  0  0  0  0  0  0  0
    0.6259    0.1677    2.9760 H   0  0  0  0  0  0  0  0  0  0  0  0
   -0.1766   -1.2384    2.2677 H   0  0  0  0  0  0  0  0  0  0  0  0
   -0.5525    1.6923    1.4421 H   0  0  0  0  0  0  0  0  0  0  0  0
   -1.7061    0.6908    2.3475 H   0  0  0  0  0  0  0  0  0  0  0  0
   -4.6788   -2.5813   -1.9465 H   0  0  0  0  0  0  0  0  0  0  0  0
   -8.6338   -0.9667   -1.6019 H   0  0  0  0  0  0  0  0  0  0  0  0
   -7.7627    0.9736   -0.3372 H   0  0  0  0  0  0  0  0  0  0  0  0
   -6.7580    2.6307    0.7596 H   0  0  0  0  0  0  0  0  0  0  0  0
   -4.8403    4.2335    1.7876 H   0  0  0  0  0  0  0  0  0  0  0  0
   -2.4919    2.9730    1.3755 H   0  0  0  0  0  0  0  0  0  0  0  0
   -0.9640   -0.6809   -1.5492 H   0  0  0  0  0  0  0  0  0  0  0  0
   -0.9116   -1.7408   -0.1277 H   0  0  0  0  0  0  0  0  0  0  0  0
    1.0346    0.5426   -0.7929 H   0  0  0  0  0  0  0  0  0  0  0  0
    1.3737   -1.1944   -0.8991 H   0  0  0  0  0  0  0  0  0  0  0  0
  1  2  2  0
  2  3  1  0
  3  4  1  0
  4  5  1  0
  5  6  1  0
  6  7  1  0
  7  8  1  0
  8  9  1  0
  2 10  1  0
 10 11  1  0
 11 12  1  0
 12 13  1  0
 13 14  1  0
 14 15  2  0
 15 16  1  0
 16 17  2  0
 17 18  1  0
 18 19  1  0
 18 20  2  0
 20 21  1  0
 21 22  2  0
 22 23  1  0
 23 24  1  0
 24 25  2  0
 25 26  1  0
 26 27  2  0
 13 28  1  0
 28 29  1  0
  9  5  1  0
 29 10  1  0
 27 14  1  0
 22 16  1  0
 27 23  1  0
  3 30  1  0
  4 31  1  0
  4 32  1  0
  5 33  1  0
  6 34  1  0
  6 35  1  0
  7 36  1  0
  7 37  1  0
  8 38  1  0
  8 39  1  0
 11 40  1  0
 11 41  1  0
 12 42  1  0
 12 43  1  0
 17 44  1  0
 20 45  1  0
 21 46  1  0
 24 47  1  0
 25 48  1  0
 26 49  1  0
 28 50  1  0
 28 51  1  0
 29 52  1  0
 29 53  1  0
M  END
$$$$
