
     RDKit          3D

144147  0  0  0  0  0  0  0  0999 V2000
   -8.1543    0.8207    1.1681 C   0  0  0  0  0  0  0  0  0  0  0  0
   -7.5603    1.9328    1.8236 O   0  0  0  0  0  0  0  0  0  0  0  0
   -6.2462    2.2494    1.3215 C   0  0  1  0  0  0  0  0  0  0  0  0
   -5.9919    3.7194    1.7247 C   0  0  0  0  0  0  0  0  0  0  0  0
   -4.7556    4.4205    1.1394 C   0  0  2  0  0  0  0  0  0  0  0  0
   -4.8766    4.6823   -0.3648 C   0  0  0  0  0  0  0  0  0  0  0  0
   -3.5142    4.7687   -1.0424 C   0  0  0  0  0  0  0  0  0  0  0  0
   -2.4240    5.2982   -0.1040 C   0  0  1  0  0  0  0  0  0  0  0  0
   -2.5911    6.8043    0.1498 C   0  0  0  0  0  0  0  0  0  0  0  0
   -2.3517    4.4358    1.2006 C   0  0  1  0  0  0  0  0  0  0  0  0
   -2.1882    5.2525    2.3502 O   0  0  0  0  0  0  0  0  0  0  0  0
   -3.5630    3.6959    1.4092 O   0  0  0  0  0  0  0  0  0  0  0  0
   -1.1865    3.4009    1.1358 C   0  0  0  0  0  0  0  0  0  0  0  0
   -1.2538    2.2352    1.5132 O   0  0  0  0  0  0  0  0  0  0  0  0
    0.1381    3.9272    0.5981 C   0  0  0  0  0  0  0  0  0  0  0  0
    0.5807    4.9583    1.0932 O   0  0  0  0  0  0  0  0  0  0  0  0
    0.7237    3.2817   -0.4908 N   0  0  0  0  0  0  0  0  0  0  0  0
    1.7795    3.9659   -1.2231 C   0  0  0  0  0  0  0  0  0  0  0  0
    1.2439    4.4223   -2.5817 C   0  0  0  0  0  0  0  0  0  0  0  0
    0.1369    3.5096   -3.1245 C   0  0  0  0  0  0  0  0  0  0  0  0
    0.2880    2.0717   -2.6272 C   0  0  0  0  0  0  0  0  0  0  0  0
    0.2873    1.9957   -1.0818 C   0  0  1  0  0  0  0  0  0  0  0  0
    1.1764    0.8705   -0.5029 C   0  0  0  0  0  0  0  0  0  0  0  0
    1.0365    0.3721    0.6061 O   0  0  0  0  0  0  0  0  0  0  0  0
    2.2212    0.5887   -1.3296 O   0  0  0  0  0  0  0  0  0  0  0  0
    3.3261   -0.1922   -0.7919 C   0  0  2  0  0  0  0  0  0  0  0  0
    4.5127    0.0604   -1.7620 C   0  0  2  0  0  0  0  0  0  0  0  0
    4.2247   -0.4623   -3.1815 C   0  0  0  0  0  0  0  0  0  0  0  0
    5.8697   -0.4968   -1.2762 C   0  0  0  0  0  0  0  0  0  0  0  0
    6.3702   -0.0005    0.0993 C   0  0  2  0  0  0  0  0  0  0  0  0
    6.5772    1.5256    0.1726 C   0  0  0  0  0  0  0  0  0  0  0  0
    8.0242    1.9241   -0.1028 C   0  0  0  0  0  0  0  0  0  0  0  0
    8.9759    1.3357    0.9460 C   0  0  1  0  0  0  0  0  0  0  0  0
    9.0976    2.2647    2.0334 O   0  0  0  0  0  0  0  0  0  0  0  0
    8.4941   -0.0231    1.5126 C   0  0  2  0  0  0  0  0  0  0  0  0
    9.6025   -0.8761    1.8518 O   0  0  0  0  0  0  0  0  0  0  0  0
   10.3247   -0.4205    2.9897 C   0  0  0  0  0  0  0  0  0  0  0  0
    7.6560   -0.7695    0.4744 C   0  0  0  0  0  0  0  0  0  0  0  0
    2.9228   -1.6675   -0.6747 C   0  0  0  0  0  0  0  0  0  0  0  0
    2.7874   -2.0899    0.7794 C   0  0  0  0  0  0  0  0  0  0  0  0
    3.6840   -1.8448    1.5911 O   0  0  0  0  0  0  0  0  0  0  0  0
    1.5686   -2.9399    1.1444 C   0  0  2  0  0  0  0  0  0  0  0  0
    1.1804   -2.7396    2.6074 C   0  0  0  0  0  0  0  0  0  0  0  0
    1.9368   -4.3816    0.8714 C   0  0  0  0  0  0  0  0  0  0  0  0
    1.4798   -5.1860   -0.1144 C   0  0  0  0  0  0  0  0  0  0  0  0
    1.9831   -6.6058   -0.2020 C   0  0  0  0  0  0  0  0  0  0  0  0
    0.4808   -4.7503   -1.1798 C   0  0  1  0  0  0  0  0  0  0  0  0
    0.9955   -5.1924   -2.4426 O   0  0  0  0  0  0  0  0  0  0  0  0
   -0.9836   -5.2231   -0.9366 C   0  0  1  0  0  0  0  0  0  0  0  0
   -1.3319   -5.0837    0.4461 O   0  0  0  0  0  0  0  0  0  0  0  0
   -1.5933   -6.3209    1.0940 C   0  0  0  0  0  0  0  0  0  0  0  0
   -1.9494   -4.3415   -1.7637 C   0  0  0  0  0  0  0  0  0  0  0  0
   -1.5931   -3.7644   -2.7960 O   0  0  0  0  0  0  0  0  0  0  0  0
   -3.3986   -4.2228   -1.2765 C   0  0  2  0  0  0  0  0  0  0  0  0
   -4.3418   -4.1735   -2.4780 C   0  0  0  0  0  0  0  0  0  0  0  0
   -3.4964   -2.9823   -0.3689 C   0  0  0  0  0  0  0  0  0  0  0  0
   -4.8392   -2.7099    0.3406 C   0  0  2  0  0  0  0  0  0  0  0  0
   -5.3952   -3.9670    1.0229 C   0  0  0  0  0  0  0  0  0  0  0  0
   -5.9002   -2.0477   -0.5117 C   0  0  0  0  0  0  0  0  0  0  0  0
   -5.8574   -0.8596   -1.1411 C   0  0  0  0  0  0  0  0  0  0  0  0
   -4.7623    0.0777   -1.2290 C   0  0  0  0  0  0  0  0  0  0  0  0
   -4.0945    0.7051   -0.2502 C   0  0  0  0  0  0  0  0  0  0  0  0
   -4.3056    0.6202    1.1735 C   0  0  0  0  0  0  0  0  0  0  0  0
   -5.2364    1.2718    1.8987 C   0  0  0  0  0  0  0  0  0  0  0  0
   -5.2776    1.0679    3.3947 C   0  0  0  0  0  0  0  0  0  0  0  0
   -8.2629    1.0216    0.0971 H   0  0  0  0  0  0  0  0  0  0  0  0
   -9.1516    0.6699    1.5919 H   0  0  0  0  0  0  0  0  0  0  0  0
   -7.5736   -0.0921    1.3299 H   0  0  0  0  0  0  0  0  0  0  0  0
   -6.2846    2.1959    0.2294 H   0  0  0  0  0  0  0  0  0  0  0  0
   -5.9356    3.7805    2.8190 H   0  0  0  0  0  0  0  0  0  0  0  0
   -6.8806    4.3110    1.4621 H   0  0  0  0  0  0  0  0  0  0  0  0
   -4.6932    5.3850    1.6585 H   0  0  0  0  0  0  0  0  0  0  0  0
   -5.4385    5.6127   -0.5182 H   0  0  0  0  0  0  0  0  0  0  0  0
   -5.4550    3.9014   -0.8696 H   0  0  0  0  0  0  0  0  0  0  0  0
   -3.2236    3.7652   -1.3775 H   0  0  0  0  0  0  0  0  0  0  0  0
   -3.5859    5.3816   -1.9488 H   0  0  0  0  0  0  0  0  0  0  0  0
   -1.4872    5.2191   -0.6657 H   0  0  0  0  0  0  0  0  0  0  0  0
   -3.5093    7.0383    0.6951 H   0  0  0  0  0  0  0  0  0  0  0  0
   -2.6207    7.3511   -0.7995 H   0  0  0  0  0  0  0  0  0  0  0  0
   -1.7440    7.1966    0.7220 H   0  0  0  0  0  0  0  0  0  0  0  0
   -2.1505    4.6251    3.0931 H   0  0  0  0  0  0  0  0  0  0  0  0
    2.1697    4.8254   -0.6686 H   0  0  0  0  0  0  0  0  0  0  0  0
    2.6131    3.2673   -1.3527 H   0  0  0  0  0  0  0  0  0  0  0  0
    2.0767    4.4730   -3.2926 H   0  0  0  0  0  0  0  0  0  0  0  0
    0.8447    5.4412   -2.5015 H   0  0  0  0  0  0  0  0  0  0  0  0
    0.1366    3.5367   -4.2199 H   0  0  0  0  0  0  0  0  0  0  0  0
   -0.8399    3.8950   -2.8049 H   0  0  0  0  0  0  0  0  0  0  0  0
    1.2039    1.6642   -3.0678 H   0  0  0  0  0  0  0  0  0  0  0  0
   -0.5281    1.4515   -3.0193 H   0  0  0  0  0  0  0  0  0  0  0  0
   -0.7385    1.7735   -0.7763 H   0  0  0  0  0  0  0  0  0  0  0  0
    3.5768    0.2483    0.1795 H   0  0  0  0  0  0  0  0  0  0  0  0
    4.6035    1.1475   -1.8791 H   0  0  0  0  0  0  0  0  0  0  0  0
    5.0263   -0.1656   -3.8667 H   0  0  0  0  0  0  0  0  0  0  0  0
    4.1544   -1.5535   -3.2092 H   0  0  0  0  0  0  0  0  0  0  0  0
    3.2908   -0.0503   -3.5777 H   0  0  0  0  0  0  0  0  0  0  0  0
    6.6297   -0.2481   -2.0292 H   0  0  0  0  0  0  0  0  0  0  0  0
    5.8181   -1.5933   -1.2544 H   0  0  0  0  0  0  0  0  0  0  0  0
    5.6152   -0.2571    0.8510 H   0  0  0  0  0  0  0  0  0  0  0  0
    6.3065    1.8691    1.1806 H   0  0  0  0  0  0  0  0  0  0  0  0
    5.9130    2.0641   -0.5086 H   0  0  0  0  0  0  0  0  0  0  0  0
    8.1011    3.0170   -0.1254 H   0  0  0  0  0  0  0  0  0  0  0  0
    8.3065    1.5588   -1.0979 H   0  0  0  0  0  0  0  0  0  0  0  0
    9.9776    1.2352    0.5120 H   0  0  0  0  0  0  0  0  0  0  0  0
    9.4602    3.0906    1.6712 H   0  0  0  0  0  0  0  0  0  0  0  0
    7.8876    0.1243    2.4161 H   0  0  0  0  0  0  0  0  0  0  0  0
   11.0200   -1.2103    3.2858 H   0  0  0  0  0  0  0  0  0  0  0  0
    9.6532   -0.2186    3.8292 H   0  0  0  0  0  0  0  0  0  0  0  0
   10.9099    0.4688    2.7436 H   0  0  0  0  0  0  0  0  0  0  0  0
    8.2741   -0.9543   -0.4150 H   0  0  0  0  0  0  0  0  0  0  0  0
    7.3919   -1.7669    0.8504 H   0  0  0  0  0  0  0  0  0  0  0  0
    1.9788   -1.8466   -1.1981 H   0  0  0  0  0  0  0  0  0  0  0  0
    3.6674   -2.3468   -1.1023 H   0  0  0  0  0  0  0  0  0  0  0  0
    0.7212   -2.5989    0.5430 H   0  0  0  0  0  0  0  0  0  0  0  0
    0.2612   -3.2849    2.8436 H   0  0  0  0  0  0  0  0  0  0  0  0
    1.9643   -3.0860    3.2902 H   0  0  0  0  0  0  0  0  0  0  0  0
    1.0084   -1.6789    2.8191 H   0  0  0  0  0  0  0  0  0  0  0  0
    2.6719   -4.7866    1.5699 H   0  0  0  0  0  0  0  0  0  0  0  0
    2.6321   -6.7280   -1.0756 H   0  0  0  0  0  0  0  0  0  0  0  0
    2.5619   -6.8963    0.6816 H   0  0  0  0  0  0  0  0  0  0  0  0
    1.1499   -7.3094   -0.2901 H   0  0  0  0  0  0  0  0  0  0  0  0
    0.4845   -3.6595   -1.2475 H   0  0  0  0  0  0  0  0  0  0  0  0
    0.7486   -6.1223   -2.5705 H   0  0  0  0  0  0  0  0  0  0  0  0
   -1.1275   -6.2529   -1.2892 H   0  0  0  0  0  0  0  0  0  0  0  0
   -0.7026   -6.9532    1.1011 H   0  0  0  0  0  0  0  0  0  0  0  0
   -1.8780   -6.1107    2.1289 H   0  0  0  0  0  0  0  0  0  0  0  0
   -2.4219   -6.8434    0.6057 H   0  0  0  0  0  0  0  0  0  0  0  0
   -3.6311   -5.1352   -0.7172 H   0  0  0  0  0  0  0  0  0  0  0  0
   -5.3836   -4.2954   -2.1701 H   0  0  0  0  0  0  0  0  0  0  0  0
   -4.1145   -4.9809   -3.1831 H   0  0  0  0  0  0  0  0  0  0  0  0
   -4.2509   -3.2275   -3.0227 H   0  0  0  0  0  0  0  0  0  0  0  0
   -2.7398   -3.0713    0.4217 H   0  0  0  0  0  0  0  0  0  0  0  0
   -3.1777   -2.1038   -0.9412 H   0  0  0  0  0  0  0  0  0  0  0  0
   -4.6265   -2.0216    1.1655 H   0  0  0  0  0  0  0  0  0  0  0  0
   -6.2505   -3.7143    1.6608 H   0  0  0  0  0  0  0  0  0  0  0  0
   -5.7376   -4.7125    0.2976 H   0  0  0  0  0  0  0  0  0  0  0  0
   -4.6341   -4.4315    1.6597 H   0  0  0  0  0  0  0  0  0  0  0  0
   -6.8307   -2.6069   -0.6154 H   0  0  0  0  0  0  0  0  0  0  0  0
   -6.7247   -0.5749   -1.7361 H   0  0  0  0  0  0  0  0  0  0  0  0
   -4.4660    0.2969   -2.2544 H   0  0  0  0  0  0  0  0  0  0  0  0
   -3.2561    1.3409   -0.5242 H   0  0  0  0  0  0  0  0  0  0  0  0
   -3.5615    0.0130    1.6883 H   0  0  0  0  0  0  0  0  0  0  0  0
   -4.4922    0.3877    3.7409 H   0  0  0  0  0  0  0  0  0  0  0  0
   -5.1382    2.0126    3.9259 H   0  0  0  0  0  0  0  0  0  0  0  0
   -6.2354    0.6343    3.6980 H   0  0  0  0  0  0  0  0  0  0  0  0
  1  2  1  0
  2  3  1  0
  3  4  1  0
  4  5  1  0
  5  6  1  0
  6  7  1  0
  7  8  1  0
  8  9  1  0
  8 10  1  0
 10 11  1  1
 10 12  1  0
 10 13  1  0
 13 14  2  0
 13 15  1  0
 15 16  2  0
 15 17  1  0
 17 18  1  0
 18 19  1  0
 19 20  1  0
 20 21  1  0
 21 22  1  0
 22 23  1  0
 23 24  2  0
 23 25  1  0
 25 26  1  0
 26 27  1  0
 27 28  1  0
 27 29  1  0
 29 30  1  0
 30 31  1  0
 31 32  1  0
 32 33  1  0
 33 34  1  0
 33 35  1  0
 35 36  1  0
 36 37  1  0
 35 38  1  0
 26 39  1  0
 39 40  1  0
 40 41  2  0
 40 42  1  0
 42 43  1  0
 42 44  1  0
 44 45  2  0
 45 46  1  0
 45 47  1  0
 47 48  1  0
 47 49  1  0
 49 50  1  0
 50 51  1  0
 49 52  1  0
 52 53  2  0
 52 54  1  0
 54 55  1  0
 54 56  1  0
 56 57  1  0
 57 58  1  0
 57 59  1  0
 59 60  2  0
 60 61  1  0
 61 62  2  0
 62 63  1  0
 63 64  2  0
 64 65  1  0
 64  3  1  0
 12  5  1  0
 22 17  1  0
 38 30  1  0
  1 66  1  0
  1 67  1  0
  1 68  1  0
  3 69  1  6
  4 70  1  0
  4 71  1  0
  5 72  1  1
  6 73  1  0
  6 74  1  0
  7 75  1  0
  7 76  1  0
  8 77  1  6
  9 78  1  0
  9 79  1  0
  9 80  1  0
 11 81  1  0
 18 82  1  0
 18 83  1  0
 19 84  1  0
 19 85  1  0
 20 86  1  0
 20 87  1  0
 21 88  1  0
 21 89  1  0
 22 90  1  1
 26 91  1  1
 27 92  1  6
 28 93  1  0
 28 94  1  0
 28 95  1  0
 29 96  1  0
 29 97  1  0
 30 98  1  1
 31 99  1  0
 31100  1  0
 32101  1  0
 32102  1  0
 33103  1  6
 34104  1  0
 35105  1  1
 37106  1  0
 37107  1  0
 37108  1  0
 38109  1  0
 38110  1  0
 39111  1  0
 39112  1  0
 42113  1  6
 43114  1  0
 43115  1  0
 43116  1  0
 44117  1  0
 46118  1  0
 46119  1  0
 46120  1  0
 47121  1  6
 48122  1  0
 49123  1  6
 51124  1  0
 51125  1  0
 51126  1  0
 54127  1  1
 55128  1  0
 55129  1  0
 55130  1  0
 56131  1  0
 56132  1  0
 57133  1  1
 58134  1  0
 58135  1  0
 58136  1  0
 59137  1  0
 60138  1  0
 61139  1  0
 62140  1  0
 63141  1  0
 65142  1  0
 65143  1  0
 65144  1  0
M  END
$$$$
