
     RDKit          3D

 46 48  0  0  0  0  0  0  0  0999 V2000
   -0.4909   -1.7795   -1.2152 C   0  0  0  0  0  0  0  0  0  0  0  0
   -1.1497   -0.5347   -1.7788 C   0  0  0  0  0  0  0  0  0  0  0  0
   -1.7335    0.3102   -0.6889 N   0  0  0  0  0  4  0  0  0  0  0  0
   -1.0658    1.4290   -0.2699 C   0  0  0  0  0  0  0  0  0  0  0  0
    0.2247    1.8222   -0.8450 C   0  0  0  0  0  0  0  0  0  0  0  0
    1.4715    1.4163   -0.5175 C   0  0  0  0  0  0  0  0  0  0  0  0
    2.5400    1.8634   -1.4092 C   0  0  0  0  0  0  0  0  0  0  0  0
    3.6746    1.1554   -1.4523 C   0  0  0  0  0  0  0  0  0  0  0  0
    3.9337    0.0337   -0.6807 N   0  0  0  0  0  0  0  0  0  0  0  0
    5.2149   -0.6700   -0.7808 C   0  0  0  0  0  0  0  0  0  0  0  0
    3.0805   -0.2608    0.4240 C   0  0  0  0  0  0  0  0  0  0  0  0
    3.4180   -1.2182    1.3991 C   0  0  0  0  0  0  0  0  0  0  0  0
    2.6166   -1.4271    2.5224 C   0  0  0  0  0  0  0  0  0  0  0  0
    1.4709   -0.6674    2.7075 C   0  0  0  0  0  0  0  0  0  0  0  0
    1.0991    0.2770    1.7504 C   0  0  0  0  0  0  0  0  0  0  0  0
    1.8548    0.4616    0.5801 C   0  0  0  0  0  0  0  0  0  0  0  0
   -1.6268    2.2861    0.6780 C   0  0  0  0  0  0  0  0  0  0  0  0
   -2.8529    1.9915    1.2410 C   0  0  0  0  0  0  0  0  0  0  0  0
   -3.5292    0.8480    0.8376 C   0  0  0  0  0  0  0  0  0  0  0  0
   -4.7771    0.5508    1.4052 C   0  0  0  0  0  0  0  0  0  0  0  0
   -5.4866   -0.5791    1.0097 C   0  0  0  0  0  0  0  0  0  0  0  0
   -4.9574   -1.4209    0.0419 C   0  0  0  0  0  0  0  0  0  0  0  0
   -3.7134   -1.1372   -0.5324 C   0  0  0  0  0  0  0  0  0  0  0  0
   -2.9634   -0.0057   -0.1513 C   0  0  0  0  0  0  0  0  0  0  0  0
    0.0000    0.0000    0.0000 Cl  0  0  0  0  0 15  0  0  0  0  0  0
   -1.1865   -2.3925   -0.6365 H   0  0  0  0  0  0  0  0  0  0  0  0
    0.3404   -1.5304   -0.5559 H   0  0  0  0  0  0  0  0  0  0  0  0
   -0.0980   -2.3959   -2.0298 H   0  0  0  0  0  0  0  0  0  0  0  0
   -0.4356    0.0475   -2.3660 H   0  0  0  0  0  0  0  0  0  0  0  0
   -1.9534   -0.7810   -2.4803 H   0  0  0  0  0  0  0  0  0  0  0  0
    0.0967    2.5079   -1.6845 H   0  0  0  0  0  0  0  0  0  0  0  0
    2.4060    2.7171   -2.0651 H   0  0  0  0  0  0  0  0  0  0  0  0
    4.4744    1.4354   -2.1338 H   0  0  0  0  0  0  0  0  0  0  0  0
    5.0681   -1.7553   -0.8113 H   0  0  0  0  0  0  0  0  0  0  0  0
    5.7417   -0.4059   -1.7055 H   0  0  0  0  0  0  0  0  0  0  0  0
    5.8720   -0.4085    0.0561 H   0  0  0  0  0  0  0  0  0  0  0  0
    4.3280   -1.8061    1.3259 H   0  0  0  0  0  0  0  0  0  0  0  0
    2.9127   -2.1601    3.2698 H   0  0  0  0  0  0  0  0  0  0  0  0
    0.8763   -0.7981    3.6090 H   0  0  0  0  0  0  0  0  0  0  0  0
    0.2296    0.8797    1.9739 H   0  0  0  0  0  0  0  0  0  0  0  0
   -1.0987    3.1869    0.9903 H   0  0  0  0  0  0  0  0  0  0  0  0
   -3.2730    2.6635    1.9891 H   0  0  0  0  0  0  0  0  0  0  0  0
   -5.2168    1.1989    2.1638 H   0  0  0  0  0  0  0  0  0  0  0  0
   -6.4549   -0.8001    1.4568 H   0  0  0  0  0  0  0  0  0  0  0  0
   -5.5153   -2.3041   -0.2676 H   0  0  0  0  0  0  0  0  0  0  0  0
   -3.3664   -1.8438   -1.2799 H   0  0  0  0  0  0  0  0  0  0  0  0
  1  2  1  0
  2  3  1  0
  3  4  2  0
  4  5  1  0
  5  6  2  0
  6  7  1  0
  7  8  2  0
  8  9  1  0
  9 10  1  0
  9 11  1  0
 11 12  2  0
 12 13  1  0
 13 14  2  0
 14 15  1  0
 15 16  2  0
  4 17  1  0
 17 18  2  0
 18 19  1  0
 19 20  2  0
 20 21  1  0
 21 22  2  0
 22 23  1  0
 23 24  2  0
 24  3  1  0
 16  6  1  0
 24 19  1  0
 16 11  1  0
  1 26  1  0
  1 27  1  0
  1 28  1  0
  2 29  1  0
  2 30  1  0
  5 31  1  0
  7 32  1  0
  8 33  1  0
 10 34  1  0
 10 35  1  0
 10 36  1  0
 12 37  1  0
 13 38  1  0
 14 39  1  0
 15 40  1  0
 17 41  1  0
 18 42  1  0
 20 43  1  0
 21 44  1  0
 22 45  1  0
 23 46  1  0
M  CHG  2   3   1  25  -1
M  END
$$$$
