
     RDKit          3D

 21 22  0  0  0  0  0  0  0  0999 V2000
   -3.3165    0.9004    0.4478 C   0  0  0  0  0  0  0  0  0  0  0  0
   -1.9993    0.2255    0.1250 C   0  0  0  0  0  0  0  0  0  0  0  0
   -2.0743   -0.9436   -0.4083 N   0  0  0  0  0  0  0  0  0  0  0  0
   -0.7360   -1.7609   -0.7963 S   0  0  0  0  0  6  0  0  0  0  0  0
   -0.6505   -2.9346    0.0513 O   0  0  0  0  0  0  0  0  0  0  0  0
   -0.6756   -1.8881   -2.2397 O   0  0  0  0  0  0  0  0  0  0  0  0
    0.6527   -0.7689   -0.3584 C   0  0  0  0  0  0  0  0  0  0  0  0
    1.9413   -1.2586   -0.5963 C   0  0  0  0  0  0  0  0  0  0  0  0
    3.0290   -0.4693   -0.2477 C   0  0  0  0  0  0  0  0  0  0  0  0
    4.6268   -1.0386   -0.5253 Cl  0  0  0  0  0  0  0  0  0  0  0  0
    2.8310    0.7856    0.3278 C   0  0  0  0  0  0  0  0  0  0  0  0
    1.5319    1.2559    0.5569 C   0  0  0  0  0  0  0  0  0  0  0  0
    0.4211    0.4771    0.2133 C   0  0  0  0  0  0  0  0  0  0  0  0
   -0.8725    0.9414    0.4396 N   0  0  0  0  0  0  0  0  0  0  0  0
   -4.1611    0.2651    0.1669 H   0  0  0  0  0  0  0  0  0  0  0  0
   -3.3832    1.8453   -0.0994 H   0  0  0  0  0  0  0  0  0  0  0  0
   -3.3653    1.1051    1.5212 H   0  0  0  0  0  0  0  0  0  0  0  0
    2.0828   -2.2388   -1.0456 H   0  0  0  0  0  0  0  0  0  0  0  0
    3.6836    1.4034    0.6006 H   0  0  0  0  0  0  0  0  0  0  0  0
    1.4049    2.2380    1.0069 H   0  0  0  0  0  0  0  0  0  0  0  0
   -0.9709    1.8587    0.8597 H   0  0  0  0  0  0  0  0  0  0  0  0
  1  2  1  0
  2  3  2  0
  3  4  1  0
  4  5  2  0
  4  6  2  0
  4  7  1  0
  7  8  2  0
  8  9  1  0
  9 10  1  0
  9 11  2  0
 11 12  1  0
 12 13  2  0
 13 14  1  0
 14  2  1  0
 13  7  1  0
  1 15  1  0
  1 16  1  0
  1 17  1  0
  8 18  1  0
 11 19  1  0
 12 20  1  0
 14 21  1  0
M  END
$$$$
