
     RDKit          3D

 29 30  0  0  0  0  0  0  0  0999 V2000
    2.3113    1.1708   -2.0305 C   0  0  0  0  0  0  0  0  0  0  0  0
    3.3363    0.5101   -1.1249 C   0  0  0  0  0  0  0  0  0  0  0  0
    2.7405   -0.3035    0.0289 C   0  0  0  0  0  0  0  0  0  0  0  0
    1.9768   -1.5635   -0.3920 C   0  0  0  0  0  0  0  0  0  0  0  0
    0.5966   -1.2977   -0.7602 N   0  0  0  0  0  0  0  0  0  0  0  0
   -0.3132   -0.9809    0.2441 C   0  0  0  0  0  0  0  0  0  0  0  0
   -0.0937   -1.3664    1.5313 N   0  0  0  0  0  0  0  0  0  0  0  0
   -1.0062   -1.0523    2.4771 C   0  0  0  0  0  0  0  0  0  0  0  0
   -2.1595   -0.3714    2.3309 N   0  0  0  0  0  0  0  0  0  0  0  0
   -2.3331   -0.0085    1.0486 C   0  0  0  0  0  0  0  0  0  0  0  0
   -1.4920   -0.2631   -0.0192 C   0  0  0  0  0  0  0  0  0  0  0  0
   -2.0223    0.2828   -1.1620 N   0  0  0  0  0  0  0  0  0  0  0  0
   -3.1727    0.8695   -0.8406 N   0  0  0  0  0  0  0  0  0  0  0  0
   -3.3605    0.6897    0.4847 N   0  0  0  0  0  0  0  0  0  0  0  0
   -4.5331    1.2152    1.1263 C   0  0  0  0  0  0  0  0  0  0  0  0
    1.8112    0.4368   -2.6676 H   0  0  0  0  0  0  0  0  0  0  0  0
    1.5564    1.7109   -1.4508 H   0  0  0  0  0  0  0  0  0  0  0  0
    2.8061    1.8881   -2.6935 H   0  0  0  0  0  0  0  0  0  0  0  0
    3.9985   -0.1238   -1.7263 H   0  0  0  0  0  0  0  0  0  0  0  0
    3.9672    1.2963   -0.6919 H   0  0  0  0  0  0  0  0  0  0  0  0
    3.5824   -0.6254    0.6558 H   0  0  0  0  0  0  0  0  0  0  0  0
    2.1222    0.3475    0.6578 H   0  0  0  0  0  0  0  0  0  0  0  0
    2.0131   -2.3030    0.4177 H   0  0  0  0  0  0  0  0  0  0  0  0
    2.4795   -2.0339   -1.2451 H   0  0  0  0  0  0  0  0  0  0  0  0
    0.4387   -0.7706   -1.6124 H   0  0  0  0  0  0  0  0  0  0  0  0
   -0.7777   -1.3926    3.4833 H   0  0  0  0  0  0  0  0  0  0  0  0
   -4.5409    2.3005    0.9984 H   0  0  0  0  0  0  0  0  0  0  0  0
   -5.4139    0.7700    0.6567 H   0  0  0  0  0  0  0  0  0  0  0  0
   -4.5179    0.9686    2.1905 H   0  0  0  0  0  0  0  0  0  0  0  0
  1  2  1  0
  2  3  1  0
  3  4  1  0
  4  5  1  0
  5  6  1  0
  6  7  2  0
  7  8  1  0
  8  9  2  0
  9 10  1  0
 10 11  2  0
 11 12  1  0
 12 13  2  0
 13 14  1  0
 14 15  1  0
 11  6  1  0
 14 10  1  0
  1 16  1  0
  1 17  1  0
  1 18  1  0
  2 19  1  0
  2 20  1  0
  3 21  1  0
  3 22  1  0
  4 23  1  0
  4 24  1  0
  5 25  1  0
  8 26  1  0
 15 27  1  0
 15 28  1  0
 15 29  1  0
M  END
$$$$
