
     RDKit          3D

 45 47  0  0  0  0  0  0  0  0999 V2000
   -2.3773    4.5850    0.3171 O   0  0  0  0  0  0  0  0  0  0  0  0
   -1.3287    4.6632    0.9356 C   0  0  0  0  0  0  0  0  0  0  0  0
   -1.1526    5.5891    1.8899 O   0  0  0  0  0  0  0  0  0  0  0  0
   -0.1859    3.7491    0.8051 C   0  0  0  0  0  0  0  0  0  0  0  0
   -0.4649    2.4566    0.5502 C   0  0  0  0  0  0  0  0  0  0  0  0
    0.5825    1.4318    0.4112 C   0  0  0  0  0  0  0  0  0  0  0  0
    0.2834    0.1382    0.0882 C   0  0  0  0  0  0  0  0  0  0  0  0
    1.3555   -0.8847   -0.0409 C   0  0  0  0  0  0  0  0  0  0  0  0
    1.7330   -1.6569    1.0640 C   0  0  0  0  0  0  0  0  0  0  0  0
    2.7331   -2.6232    0.9390 C   0  0  0  0  0  0  0  0  0  0  0  0
    3.3611   -2.8227   -0.2929 C   0  0  0  0  0  0  0  0  0  0  0  0
    4.3172   -3.7918   -0.3981 O   0  0  0  0  0  0  0  0  0  0  0  0
    2.9957   -2.0586   -1.4081 C   0  0  0  0  0  0  0  0  0  0  0  0
    3.6735   -2.2379   -2.7177 C   0  0  0  0  0  0  0  0  0  0  0  0
    4.7957   -2.6507   -2.9340 O   0  0  0  0  0  0  0  0  0  0  0  0
    2.8753   -1.8694   -3.7414 O   0  0  0  0  0  0  0  0  0  0  0  0
    1.9876   -1.0899   -1.2745 C   0  0  0  0  0  0  0  0  0  0  0  0
   -1.1218   -0.2825   -0.1581 C   0  0  0  0  0  0  0  0  0  0  0  0
   -1.6854   -0.1574   -1.4343 C   0  0  0  0  0  0  0  0  0  0  0  0
   -3.0095   -0.5412   -1.6629 C   0  0  0  0  0  0  0  0  0  0  0  0
   -3.7745   -1.0655   -0.6187 C   0  0  0  0  0  0  0  0  0  0  0  0
   -5.0837   -1.3817   -0.8469 O   0  0  0  0  0  0  0  0  0  0  0  0
   -3.2122   -1.2222    0.6527 C   0  0  0  0  0  0  0  0  0  0  0  0
   -3.9488   -1.7765    1.8055 C   0  0  0  0  0  0  0  0  0  0  0  0
   -3.8376   -1.3919    2.9563 O   0  0  0  0  0  0  0  0  0  0  0  0
   -4.6925   -2.8490    1.4894 O   0  0  0  0  0  0  0  0  0  0  0  0
   -1.8902   -0.8150    0.8840 C   0  0  0  0  0  0  0  0  0  0  0  0
    1.9635    1.8640    0.6608 C   0  0  0  0  0  0  0  0  0  0  0  0
    2.2699    3.1445    0.9055 C   0  0  0  0  0  0  0  0  0  0  0  0
    1.2231    4.1944    0.9368 C   0  0  0  0  0  0  0  0  0  0  0  0
    1.5571    5.3693    1.0373 O   0  0  0  0  0  0  0  0  0  0  0  0
   -1.9668    6.1318    1.8688 H   0  0  0  0  0  0  0  0  0  0  0  0
   -1.5066    2.1585    0.4568 H   0  0  0  0  0  0  0  0  0  0  0  0
    1.2487   -1.5123    2.0277 H   0  0  0  0  0  0  0  0  0  0  0  0
    3.0030   -3.2154    1.8090 H   0  0  0  0  0  0  0  0  0  0  0  0
    4.4894   -4.1898    0.4703 H   0  0  0  0  0  0  0  0  0  0  0  0
    3.4277   -2.0596   -4.5292 H   0  0  0  0  0  0  0  0  0  0  0  0
    1.6978   -0.4866   -2.1325 H   0  0  0  0  0  0  0  0  0  0  0  0
   -1.1005    0.2521   -2.2556 H   0  0  0  0  0  0  0  0  0  0  0  0
   -3.4289   -0.4122   -2.6568 H   0  0  0  0  0  0  0  0  0  0  0  0
   -5.2884   -1.2709   -1.7896 H   0  0  0  0  0  0  0  0  0  0  0  0
   -5.1139   -3.1113    2.3322 H   0  0  0  0  0  0  0  0  0  0  0  0
   -1.4646   -0.9176    1.8805 H   0  0  0  0  0  0  0  0  0  0  0  0
    2.7737    1.1415    0.6439 H   0  0  0  0  0  0  0  0  0  0  0  0
    3.2877    3.4753    1.0742 H   0  0  0  0  0  0  0  0  0  0  0  0
  1  2  2  0
  2  3  1  0
  2  4  1  0
  4  5  2  0
  5  6  1  0
  6  7  2  3
  7  8  1  0
  8  9  2  0
  9 10  1  0
 10 11  2  0
 11 12  1  0
 11 13  1  0
 13 14  1  0
 14 15  2  0
 14 16  1  0
 13 17  2  0
  7 18  1  0
 18 19  2  0
 19 20  1  0
 20 21  2  0
 21 22  1  0
 21 23  1  0
 23 24  1  0
 24 25  2  0
 24 26  1  0
 23 27  2  0
  6 28  1  0
 28 29  2  0
 29 30  1  0
 30 31  2  0
 30  4  1  0
 17  8  1  0
 27 18  1  0
  3 32  1  0
  5 33  1  0
  9 34  1  0
 10 35  1  0
 12 36  1  0
 16 37  1  0
 17 38  1  0
 19 39  1  0
 20 40  1  0
 22 41  1  0
 26 42  1  0
 27 43  1  0
 28 44  1  0
 29 45  1  0
M  END
$$$$
