
     RDKit          3D

 66 69  0  0  0  0  0  0  0  0999 V2000
    0.2175   -2.6268    4.1196 C   0  0  0  0  0  0  0  0  0  0  0  0
    0.5217   -1.8829    2.8272 C   0  0  0  0  0  0  0  0  0  0  0  0
   -0.7717   -1.4799    2.1039 C   0  0  0  0  0  0  0  0  0  0  0  0
   -0.5620   -0.7658    0.7483 C   0  0  0  0  0  0  0  0  0  0  0  0
    0.3170    0.4981    0.8870 C   0  0  0  0  0  0  0  0  0  0  0  0
    1.6596    0.3491    0.3223 N   0  0  0  0  0  0  0  0  0  0  0  0
    2.6594    1.1703    0.8624 C   0  0  0  0  0  0  0  0  0  0  0  0
    2.4459    2.0059    1.7375 O   0  0  0  0  0  0  0  0  0  0  0  0
    4.0456    1.0335    0.3647 C   0  0  0  0  0  0  0  0  0  0  0  0
    4.7076   -0.1943    0.4263 C   0  0  0  0  0  0  0  0  0  0  0  0
    6.0275   -0.2881   -0.0182 C   0  0  0  0  0  0  0  0  0  0  0  0
    6.6993    0.8397   -0.5012 C   0  0  0  0  0  0  0  0  0  0  0  0
    7.9870    0.6073   -0.8993 O   0  0  0  0  0  0  0  0  0  0  0  0
    8.7424    1.7341   -1.3286 C   0  0  0  0  0  0  0  0  0  0  0  0
    6.0389    2.0699   -0.5359 C   0  0  0  0  0  0  0  0  0  0  0  0
    4.7146    2.1699   -0.0960 C   0  0  0  0  0  0  0  0  0  0  0  0
    1.7809   -0.2297   -1.0304 C   0  0  0  0  0  0  0  0  0  0  0  0
    0.5201   -0.9606   -1.5245 C   0  0  0  0  0  0  0  0  0  0  0  0
    0.8758   -1.9315   -2.6545 C   0  0  0  0  0  0  0  0  0  0  0  0
   -0.5715    0.0305   -1.9944 C   0  0  0  0  0  0  0  0  0  0  0  0
   -1.8707   -0.0661   -1.3085 N   0  0  0  0  0  0  0  0  0  0  0  0
   -2.9608    0.5339   -1.9573 C   0  0  0  0  0  0  0  0  0  0  0  0
   -2.8693    1.1206   -3.0317 O   0  0  0  0  0  0  0  0  0  0  0  0
   -4.2884    0.4769   -1.3087 C   0  0  0  0  0  0  0  0  0  0  0  0
   -4.9242   -0.7502   -1.1054 C   0  0  0  0  0  0  0  0  0  0  0  0
   -6.1710   -0.7785   -0.4790 C   0  0  0  0  0  0  0  0  0  0  0  0
   -6.7932    0.4081   -0.0709 C   0  0  0  0  0  0  0  0  0  0  0  0
   -8.0028    0.2315    0.5410 O   0  0  0  0  0  0  0  0  0  0  0  0
   -8.6735    1.4001    0.9965 C   0  0  0  0  0  0  0  0  0  0  0  0
   -6.1667    1.6331   -0.3145 C   0  0  0  0  0  0  0  0  0  0  0  0
   -4.9165    1.6690   -0.9410 C   0  0  0  0  0  0  0  0  0  0  0  0
   -1.9189   -0.3905    0.1324 C   0  0  0  0  0  0  0  0  0  0  0  0
    0.0207   -1.6900   -0.3011 C   0  0  0  0  0  0  0  0  0  0  0  0
    0.0571   -2.9123   -0.1840 O   0  0  0  0  0  0  0  0  0  0  0  0
   -0.3687   -2.0025    4.8014 H   0  0  0  0  0  0  0  0  0  0  0  0
   -0.3454   -3.5447    3.9225 H   0  0  0  0  0  0  0  0  0  0  0  0
    1.1490   -2.9011    4.6245 H   0  0  0  0  0  0  0  0  0  0  0  0
    1.1190   -0.9990    3.0711 H   0  0  0  0  0  0  0  0  0  0  0  0
    1.1384   -2.5229    2.1887 H   0  0  0  0  0  0  0  0  0  0  0  0
   -1.3544   -0.8229    2.7635 H   0  0  0  0  0  0  0  0  0  0  0  0
   -1.3814   -2.3811    1.9552 H   0  0  0  0  0  0  0  0  0  0  0  0
    0.3869    0.7997    1.9387 H   0  0  0  0  0  0  0  0  0  0  0  0
   -0.1305    1.3673    0.3884 H   0  0  0  0  0  0  0  0  0  0  0  0
    4.2111   -1.0723    0.8299 H   0  0  0  0  0  0  0  0  0  0  0  0
    6.5437   -1.2442    0.0256 H   0  0  0  0  0  0  0  0  0  0  0  0
    8.8438    2.4706   -0.5241 H   0  0  0  0  0  0  0  0  0  0  0  0
    9.7467    1.3840   -1.5886 H   0  0  0  0  0  0  0  0  0  0  0  0
    8.3040    2.1839   -2.2263 H   0  0  0  0  0  0  0  0  0  0  0  0
    6.5271    2.9720   -0.8889 H   0  0  0  0  0  0  0  0  0  0  0  0
    4.2106    3.1334   -0.1064 H   0  0  0  0  0  0  0  0  0  0  0  0
    2.6155   -0.9385   -0.9975 H   0  0  0  0  0  0  0  0  0  0  0  0
    2.0692    0.5701   -1.7254 H   0  0  0  0  0  0  0  0  0  0  0  0
    1.6275   -2.6625   -2.3355 H   0  0  0  0  0  0  0  0  0  0  0  0
   -0.0053   -2.4942   -2.9825 H   0  0  0  0  0  0  0  0  0  0  0  0
    1.2789   -1.3961   -3.5202 H   0  0  0  0  0  0  0  0  0  0  0  0
   -0.2379    1.0705   -1.8840 H   0  0  0  0  0  0  0  0  0  0  0  0
   -0.7498   -0.0913   -3.0707 H   0  0  0  0  0  0  0  0  0  0  0  0
   -4.4580   -1.6761   -1.4317 H   0  0  0  0  0  0  0  0  0  0  0  0
   -6.6675   -1.7318   -0.3095 H   0  0  0  0  0  0  0  0  0  0  0  0
   -8.9218    2.0635    0.1610 H   0  0  0  0  0  0  0  0  0  0  0  0
   -9.6135    1.0854    1.4615 H   0  0  0  0  0  0  0  0  0  0  0  0
   -8.0832    1.9217    1.7573 H   0  0  0  0  0  0  0  0  0  0  0  0
   -6.6253    2.5761   -0.0348 H   0  0  0  0  0  0  0  0  0  0  0  0
   -4.4316    2.6236   -1.1366 H   0  0  0  0  0  0  0  0  0  0  0  0
   -2.6123   -1.2339    0.2358 H   0  0  0  0  0  0  0  0  0  0  0  0
   -2.3623    0.4590    0.6668 H   0  0  0  0  0  0  0  0  0  0  0  0
  1  2  1  0
  2  3  1  0
  3  4  1  0
  4  5  1  0
  5  6  1  0
  6  7  1  0
  7  8  2  0
  7  9  1  0
  9 10  2  0
 10 11  1  0
 11 12  2  0
 12 13  1  0
 13 14  1  0
 12 15  1  0
 15 16  2  0
  6 17  1  0
 17 18  1  0
 18 19  1  0
 18 20  1  0
 20 21  1  0
 21 22  1  0
 22 23  2  0
 22 24  1  0
 24 25  2  0
 25 26  1  0
 26 27  2  0
 27 28  1  0
 28 29  1  0
 27 30  1  0
 30 31  2  0
 21 32  1  0
 18 33  1  0
 33 34  2  0
 32  4  1  0
 33  4  1  0
 16  9  1  0
 31 24  1  0
  1 35  1  0
  1 36  1  0
  1 37  1  0
  2 38  1  0
  2 39  1  0
  3 40  1  0
  3 41  1  0
  5 42  1  0
  5 43  1  0
 10 44  1  0
 11 45  1  0
 14 46  1  0
 14 47  1  0
 14 48  1  0
 15 49  1  0
 16 50  1  0
 17 51  1  0
 17 52  1  0
 19 53  1  0
 19 54  1  0
 19 55  1  0
 20 56  1  0
 20 57  1  0
 25 58  1  0
 26 59  1  0
 29 60  1  0
 29 61  1  0
 29 62  1  0
 30 63  1  0
 31 64  1  0
 32 65  1  0
 32 66  1  0
M  END
$$$$
