
     RDKit          3D

 43 46  0  0  0  0  0  0  0  0999 V2000
    7.3839    0.0178   -1.1813 C   0  0  0  0  0  0  0  0  0  0  0  0
    6.2464    0.1383   -2.1803 C   0  0  0  0  0  0  0  0  0  0  0  0
    5.2758   -0.8857   -1.9688 O   0  0  0  0  0  0  0  0  0  0  0  0
    4.2454   -0.6499   -1.1044 C   0  0  0  0  0  0  0  0  0  0  0  0
    3.2842   -1.6603   -1.0594 C   0  0  0  0  0  0  0  0  0  0  0  0
    2.1746   -1.5547   -0.2153 C   0  0  0  0  0  0  0  0  0  0  0  0
    2.0090   -0.4321    0.6012 C   0  0  0  0  0  0  0  0  0  0  0  0
    0.8682   -0.4008    1.4263 N   0  0  0  0  0  0  0  0  0  0  0  0
    0.4391    0.6362    2.2366 C   0  0  0  0  0  0  0  0  0  0  0  0
    0.9480    1.7487    2.3412 O   0  0  0  0  0  0  0  0  0  0  0  0
   -0.8427    0.3044    2.9982 C   0  0  0  0  0  0  0  0  0  0  0  0
   -1.9812    0.4882    2.1138 N   0  0  0  0  0  0  0  0  0  0  0  0
   -2.6421    1.7039    2.0782 C   0  0  0  0  0  0  0  0  0  0  0  0
   -3.6683    2.0090    1.3460 N   0  0  0  0  0  0  0  0  0  0  0  0
   -4.1069    0.9670    0.5129 C   0  0  0  0  0  0  0  0  0  0  0  0
   -3.4830   -0.2485    0.4681 C   0  0  0  0  0  0  0  0  0  0  0  0
   -4.2121   -1.3115   -0.6285 S   0  0  0  0  0  0  0  0  0  0  0  0
   -5.3844   -0.1379   -1.0525 C   0  0  0  0  0  0  0  0  0  0  0  0
   -6.3373   -0.4174   -1.9667 N   0  0  0  0  0  0  0  0  0  0  0  0
   -7.1866    0.6047   -2.2004 C   0  0  0  0  0  0  0  0  0  0  0  0
   -7.1394    1.8478   -1.5913 C   0  0  0  0  0  0  0  0  0  0  0  0
   -6.1409    2.0941   -0.6521 C   0  0  0  0  0  0  0  0  0  0  0  0
   -5.2217    1.0643   -0.3644 C   0  0  0  0  0  0  0  0  0  0  0  0
   -2.3385   -0.5599    1.2688 C   0  0  0  0  0  0  0  0  0  0  0  0
   -1.6939   -1.6084    1.2251 O   0  0  0  0  0  0  0  0  0  0  0  0
    2.9743    0.5735    0.5624 C   0  0  0  0  0  0  0  0  0  0  0  0
    4.0870    0.4654   -0.2853 C   0  0  0  0  0  0  0  0  0  0  0  0
    8.1620    0.7577   -1.3899 H   0  0  0  0  0  0  0  0  0  0  0  0
    7.0333    0.1616   -0.1551 H   0  0  0  0  0  0  0  0  0  0  0  0
    7.8282   -0.9821   -1.2267 H   0  0  0  0  0  0  0  0  0  0  0  0
    5.8050    1.1410   -2.1944 H   0  0  0  0  0  0  0  0  0  0  0  0
    6.6521   -0.0238   -3.1855 H   0  0  0  0  0  0  0  0  0  0  0  0
    3.3975   -2.5386   -1.6905 H   0  0  0  0  0  0  0  0  0  0  0  0
    1.4452   -2.3611   -0.2133 H   0  0  0  0  0  0  0  0  0  0  0  0
    0.2440   -1.2054    1.3469 H   0  0  0  0  0  0  0  0  0  0  0  0
   -0.9198    0.9734    3.8624 H   0  0  0  0  0  0  0  0  0  0  0  0
   -0.8010   -0.7255    3.3697 H   0  0  0  0  0  0  0  0  0  0  0  0
   -2.2248    2.4628    2.7611 H   0  0  0  0  0  0  0  0  0  0  0  0
   -7.9572    0.3885   -2.9375 H   0  0  0  0  0  0  0  0  0  0  0  0
   -7.8657    2.6134   -1.8423 H   0  0  0  0  0  0  0  0  0  0  0  0
   -6.0662    3.0547   -0.1510 H   0  0  0  0  0  0  0  0  0  0  0  0
    2.8996    1.4596    1.1850 H   0  0  0  0  0  0  0  0  0  0  0  0
    4.8107    1.2729   -0.2670 H   0  0  0  0  0  0  0  0  0  0  0  0
  1  2  1  0
  2  3  1  0
  3  4  1  0
  4  5  2  0
  5  6  1  0
  6  7  2  0
  7  8  1  0
  8  9  1  0
  9 10  2  0
  9 11  1  0
 11 12  1  0
 12 13  1  0
 13 14  2  0
 14 15  1  0
 15 16  2  0
 16 17  1  0
 17 18  1  0
 18 19  2  0
 19 20  1  0
 20 21  2  0
 21 22  1  0
 22 23  2  0
 16 24  1  0
 24 25  2  0
  7 26  1  0
 26 27  2  0
 27  4  1  0
 24 12  1  0
 23 15  1  0
 23 18  1  0
  1 28  1  0
  1 29  1  0
  1 30  1  0
  2 31  1  0
  2 32  1  0
  5 33  1  0
  6 34  1  0
  8 35  1  0
 11 36  1  0
 11 37  1  0
 13 38  1  0
 20 39  1  0
 21 40  1  0
 22 41  1  0
 26 42  1  0
 27 43  1  0
M  END
$$$$
