
     RDKit          3D

 53 56  0  0  0  0  0  0  0  0999 V2000
    7.5536    2.6448   -1.6565 C   0  0  0  0  0  0  0  0  0  0  0  0
    7.2787    1.5442   -0.8026 O   0  0  0  0  0  0  0  0  0  0  0  0
    6.1191    1.5820   -0.0681 C   0  0  0  0  0  0  0  0  0  0  0  0
    5.1829    2.6198   -0.1219 C   0  0  0  0  0  0  0  0  0  0  0  0
    4.0272    2.5730    0.6619 C   0  0  0  0  0  0  0  0  0  0  0  0
    3.7946    1.4938    1.5205 C   0  0  0  0  0  0  0  0  0  0  0  0
    2.5343    1.4303    2.3518 C   0  0  0  0  0  0  0  0  0  0  0  0
    1.4878    0.7028    1.6747 N   0  0  0  0  0  0  0  0  0  0  0  0
    1.2949   -0.6405    1.7755 C   0  0  0  0  0  0  0  0  0  0  0  0
    1.9488   -1.4392    2.4246 O   0  0  0  0  0  0  0  0  0  0  0  0
    0.2104   -0.9813    0.9987 N   0  0  0  0  0  0  0  0  0  0  0  0
   -0.2497    0.1286    0.2009 C   0  0  1  0  0  0  0  0  0  0  0  0
   -1.7286    0.4308    0.3644 C   0  0  0  0  0  0  0  0  0  0  0  0
   -2.5845   -0.5534   -0.4074 C   0  0  0  0  0  0  0  0  0  0  0  0
   -2.0929   -1.5003   -1.0105 O   0  0  0  0  0  0  0  0  0  0  0  0
   -3.9300   -0.2372   -0.3162 N   0  0  0  0  0  0  0  0  0  0  0  0
   -5.0200   -0.9228   -0.8964 C   0  0  0  0  0  0  0  0  0  0  0  0
   -4.8897   -2.0687   -1.6816 C   0  0  0  0  0  0  0  0  0  0  0  0
   -6.0069   -2.7112   -2.2342 C   0  0  0  0  0  0  0  0  0  0  0  0
   -7.2662   -2.1653   -1.9734 C   0  0  0  0  0  0  0  0  0  0  0  0
   -8.5164   -2.5758   -2.3772 N   0  0  0  0  0  0  0  0  0  0  0  0
   -9.4736   -1.7311   -1.8800 C   0  0  0  0  0  0  0  0  0  0  0  0
   -8.8359   -0.7590   -1.1434 C   0  0  0  0  0  0  0  0  0  0  0  0
   -7.4393   -1.0231   -1.1951 C   0  0  0  0  0  0  0  0  0  0  0  0
   -6.2999   -0.3956   -0.6508 C   0  0  0  0  0  0  0  0  0  0  0  0
    0.6100    1.2492    0.7821 C   0  0  0  0  0  0  0  0  0  0  0  0
    0.5196    2.4311    0.4771 O   0  0  0  0  0  0  0  0  0  0  0  0
    4.7277    0.4460    1.5657 C   0  0  0  0  0  0  0  0  0  0  0  0
    5.8851    0.4798    0.7781 C   0  0  0  0  0  0  0  0  0  0  0  0
    6.8434   -0.5042    0.7694 O   0  0  0  0  0  0  0  0  0  0  0  0
    6.5661   -1.6959    1.4917 C   0  0  0  0  0  0  0  0  0  0  0  0
    7.6532    3.5737   -1.0854 H   0  0  0  0  0  0  0  0  0  0  0  0
    6.7918    2.7388   -2.4374 H   0  0  0  0  0  0  0  0  0  0  0  0
    8.5118    2.4544   -2.1496 H   0  0  0  0  0  0  0  0  0  0  0  0
    5.3189    3.4793   -0.7694 H   0  0  0  0  0  0  0  0  0  0  0  0
    3.3052    3.3854    0.5913 H   0  0  0  0  0  0  0  0  0  0  0  0
    2.1815    2.4454    2.5698 H   0  0  0  0  0  0  0  0  0  0  0  0
    2.7497    0.9474    3.3124 H   0  0  0  0  0  0  0  0  0  0  0  0
    0.0207   -1.9538    0.7820 H   0  0  0  0  0  0  0  0  0  0  0  0
    0.0504   -0.0421   -0.8385 H   0  0  0  0  0  0  0  0  0  0  0  0
   -2.0208    0.3975    1.4212 H   0  0  0  0  0  0  0  0  0  0  0  0
   -1.9499    1.4357   -0.0157 H   0  0  0  0  0  0  0  0  0  0  0  0
   -4.1724    0.5816    0.2285 H   0  0  0  0  0  0  0  0  0  0  0  0
   -3.9171   -2.5032   -1.8927 H   0  0  0  0  0  0  0  0  0  0  0  0
   -5.8856   -3.6018   -2.8427 H   0  0  0  0  0  0  0  0  0  0  0  0
   -8.6947   -3.3845   -2.9567 H   0  0  0  0  0  0  0  0  0  0  0  0
  -10.5216   -1.8945   -2.0928 H   0  0  0  0  0  0  0  0  0  0  0  0
   -9.3212    0.0558   -0.6225 H   0  0  0  0  0  0  0  0  0  0  0  0
   -6.4350    0.4942   -0.0447 H   0  0  0  0  0  0  0  0  0  0  0  0
    4.5248   -0.3934    2.2254 H   0  0  0  0  0  0  0  0  0  0  0  0
    7.3919   -2.3923    1.3165 H   0  0  0  0  0  0  0  0  0  0  0  0
    5.6478   -2.1738    1.1342 H   0  0  0  0  0  0  0  0  0  0  0  0
    6.5198   -1.5011    2.5680 H   0  0  0  0  0  0  0  0  0  0  0  0
  1  2  1  0
  2  3  1  0
  3  4  2  0
  4  5  1  0
  5  6  2  0
  6  7  1  0
  7  8  1  0
  8  9  1  0
  9 10  2  0
  9 11  1  0
 11 12  1  0
 12 13  1  0
 13 14  1  0
 14 15  2  0
 14 16  1  0
 16 17  1  0
 17 18  2  0
 18 19  1  0
 19 20  2  0
 20 21  1  0
 21 22  1  0
 22 23  2  0
 23 24  1  0
 24 25  2  0
 12 26  1  0
 26 27  2  0
  6 28  1  0
 28 29  2  0
 29 30  1  0
 30 31  1  0
 29  3  1  0
 26  8  1  0
 25 17  1  0
 24 20  1  0
  1 32  1  0
  1 33  1  0
  1 34  1  0
  4 35  1  0
  5 36  1  0
  7 37  1  0
  7 38  1  0
 11 39  1  0
 12 40  1  6
 13 41  1  0
 13 42  1  0
 16 43  1  0
 18 44  1  0
 19 45  1  0
 21 46  1  0
 22 47  1  0
 23 48  1  0
 25 49  1  0
 28 50  1  0
 31 51  1  0
 31 52  1  0
 31 53  1  0
M  END
$$$$
