
     RDKit          3D

 51 55  0  0  0  0  0  0  0  0999 V2000
    5.7793    1.8882    0.1947 C   0  0  0  0  0  0  0  0  0  0  0  0
    6.1462    0.5944    0.2089 C   0  0  0  0  0  0  0  0  0  0  0  0
    7.4724    0.1929    0.8046 C   0  0  0  0  0  0  0  0  0  0  0  0
    5.3231   -0.5696   -0.3379 C   0  0  2  0  0  0  0  0  0  0  0  0
    4.0418   -0.2611   -1.1418 C   0  0  0  0  0  0  0  0  0  0  0  0
    3.0249   -0.4774   -0.0853 C   0  0  0  0  0  0  0  0  0  0  0  0
    3.6094   -1.1662    0.9664 C   0  0  0  0  0  0  0  0  0  0  0  0
    2.8875   -1.5687    2.0707 C   0  0  0  0  0  0  0  0  0  0  0  0
    1.5310   -1.2408    2.1158 C   0  0  0  0  0  0  0  0  0  0  0  0
    0.9335   -0.5361    1.0507 C   0  0  0  0  0  0  0  0  0  0  0  0
    1.6769   -0.1687   -0.0702 C   0  0  0  0  0  0  0  0  0  0  0  0
    1.1725    0.4872   -1.1496 O   0  0  0  0  0  0  0  0  0  0  0  0
   -0.2477    0.4216   -1.3013 C   0  0  1  0  0  0  0  0  0  0  0  0
   -0.6972   -0.8946   -1.9364 C   0  0  0  0  0  0  0  0  0  0  0  0
   -2.0780   -0.8778   -2.3012 O   0  0  0  0  0  0  0  0  0  0  0  0
   -2.9259   -0.3264   -1.3777 C   0  0  0  0  0  0  0  0  0  0  0  0
   -4.2870   -0.5235   -1.6240 C   0  0  0  0  0  0  0  0  0  0  0  0
   -5.2506    0.0060   -0.7608 C   0  0  0  0  0  0  0  0  0  0  0  0
   -6.6060   -0.1411   -0.9238 O   0  0  0  0  0  0  0  0  0  0  0  0
   -7.0562   -0.8924   -2.0416 C   0  0  0  0  0  0  0  0  0  0  0  0
   -4.8379    0.7391    0.3672 C   0  0  0  0  0  0  0  0  0  0  0  0
   -5.8343    1.2305    1.1746 O   0  0  0  0  0  0  0  0  0  0  0  0
   -5.4641    1.5999    2.4964 C   0  0  0  0  0  0  0  0  0  0  0  0
   -3.4729    0.9543    0.5924 C   0  0  0  0  0  0  0  0  0  0  0  0
   -2.5046    0.4270   -0.2786 C   0  0  0  0  0  0  0  0  0  0  0  0
   -1.0352    0.6808   -0.0212 C   0  0  1  0  0  0  0  0  0  0  0  0
   -0.4908   -0.1589    1.1216 C   0  0  0  0  0  0  0  0  0  0  0  0
   -1.1479   -0.4713    2.1113 O   0  0  0  0  0  0  0  0  0  0  0  0
    4.9460   -1.4130    0.7900 O   0  0  0  0  0  0  0  0  0  0  0  0
    4.8287    2.2282   -0.2007 H   0  0  0  0  0  0  0  0  0  0  0  0
    6.4225    2.6602    0.6089 H   0  0  0  0  0  0  0  0  0  0  0  0
    8.0844   -0.3212    0.0562 H   0  0  0  0  0  0  0  0  0  0  0  0
    7.3243   -0.4792    1.6559 H   0  0  0  0  0  0  0  0  0  0  0  0
    8.0441    1.0563    1.1614 H   0  0  0  0  0  0  0  0  0  0  0  0
    5.9861   -1.1612   -0.9834 H   0  0  0  0  0  0  0  0  0  0  0  0
    3.8995   -1.0106   -1.9293 H   0  0  0  0  0  0  0  0  0  0  0  0
    4.0179    0.7317   -1.5949 H   0  0  0  0  0  0  0  0  0  0  0  0
    3.3635   -2.1096    2.8815 H   0  0  0  0  0  0  0  0  0  0  0  0
    0.9389   -1.5279    2.9832 H   0  0  0  0  0  0  0  0  0  0  0  0
   -0.5018    1.2227   -2.0100 H   0  0  0  0  0  0  0  0  0  0  0  0
   -0.5113   -1.7578   -1.2854 H   0  0  0  0  0  0  0  0  0  0  0  0
   -0.1172   -1.0781   -2.8483 H   0  0  0  0  0  0  0  0  0  0  0  0
   -4.5637   -1.0994   -2.5005 H   0  0  0  0  0  0  0  0  0  0  0  0
   -8.1500   -0.9117   -2.0129 H   0  0  0  0  0  0  0  0  0  0  0  0
   -6.7047   -1.9281   -1.9896 H   0  0  0  0  0  0  0  0  0  0  0  0
   -6.7575   -0.4186   -2.9825 H   0  0  0  0  0  0  0  0  0  0  0  0
   -6.3834    1.7746    3.0639 H   0  0  0  0  0  0  0  0  0  0  0  0
   -4.9101    0.7996    2.9989 H   0  0  0  0  0  0  0  0  0  0  0  0
   -4.8941    2.5343    2.4937 H   0  0  0  0  0  0  0  0  0  0  0  0
   -3.1363    1.5323    1.4483 H   0  0  0  0  0  0  0  0  0  0  0  0
   -0.8884    1.7294    0.2719 H   0  0  0  0  0  0  0  0  0  0  0  0
  1  2  2  3
  2  3  1  0
  2  4  1  0
  4  5  1  0
  5  6  1  0
  6  7  2  0
  7  8  1  0
  8  9  2  0
  9 10  1  0
 10 11  2  0
 11 12  1  0
 12 13  1  0
 13 14  1  0
 14 15  1  0
 15 16  1  0
 16 17  2  0
 17 18  1  0
 18 19  1  0
 19 20  1  0
 18 21  2  0
 21 22  1  0
 22 23  1  0
 21 24  1  0
 24 25  2  0
 25 26  1  0
 26 27  1  0
 27 28  2  0
  7 29  1  0
 29  4  1  0
 11  6  1  0
 26 13  1  0
 27 10  1  0
 25 16  1  0
  1 30  1  0
  1 31  1  0
  3 32  1  0
  3 33  1  0
  3 34  1  0
  4 35  1  6
  5 36  1  0
  5 37  1  0
  8 38  1  0
  9 39  1  0
 13 40  1  6
 14 41  1  0
 14 42  1  0
 17 43  1  0
 20 44  1  0
 20 45  1  0
 20 46  1  0
 23 47  1  0
 23 48  1  0
 23 49  1  0
 24 50  1  0
 26 51  1  1
M  END
$$$$
