
     RDKit          3D

 67 72  0  0  0  0  0  0  0  0999 V2000
    6.2919   -5.3374    0.9676 C   0  0  0  0  0  0  0  0  0  0  0  0
    5.2413   -4.4058    0.4367 C   0  0  0  0  0  0  0  0  0  0  0  0
    3.9946   -4.8974    0.0399 C   0  0  0  0  0  0  0  0  0  0  0  0
    3.0441   -4.0359   -0.5074 C   0  0  0  0  0  0  0  0  0  0  0  0
    3.3219   -2.6723   -0.6431 C   0  0  0  0  0  0  0  0  0  0  0  0
    4.5582   -2.1635   -0.2475 C   0  0  0  0  0  0  0  0  0  0  0  0
    5.5219   -3.0418    0.2677 C   0  0  0  0  0  0  0  0  0  0  0  0
    4.9285   -0.8208   -0.3862 N   0  0  0  0  0  0  0  0  0  0  0  0
    4.1417    0.2971   -0.4764 C   0  0  0  0  0  0  0  0  0  0  0  0
    4.6726    1.3983   -0.6227 O   0  0  0  0  0  0  0  0  0  0  0  0
    2.6800    0.2308   -0.2771 C   0  0  0  0  0  0  0  0  0  0  0  0
    2.0597    1.3398    0.3132 C   0  0  0  0  0  0  0  0  0  0  0  0
    0.6643    1.3817    0.4802 C   0  0  0  0  0  0  0  0  0  0  0  0
   -0.0432    2.8432    1.2108 S   0  0  0  0  0  6  0  0  0  0  0  0
    0.1111    2.7064    2.6447 O   0  0  0  0  0  0  0  0  0  0  0  0
   -1.3241    3.1555    0.6107 O   0  0  0  0  0  0  0  0  0  0  0  0
    1.0048    4.1120    0.7030 N   0  0  0  0  0  0  0  0  0  0  0  0
    1.0211    4.3682   -0.7809 C   0  0  0  0  0  0  0  0  0  0  0  0
    1.5758    5.7666   -1.0751 C   0  0  0  0  0  0  0  0  0  0  0  0
    0.7660    6.8183   -0.5320 O   0  0  0  0  0  0  0  0  0  0  0  0
    0.0560    6.4286    0.6529 C   0  0  0  0  0  0  0  0  0  0  0  0
    0.8119    5.3864    1.4808 C   0  0  0  0  0  0  0  0  0  0  0  0
   -0.1353    0.2942    0.1004 C   0  0  0  0  0  0  0  0  0  0  0  0
   -1.5102    0.2732    0.3193 N   0  0  0  0  0  0  0  0  0  0  0  0
   -2.3677    0.4383   -0.8763 C   0  0  0  0  0  0  0  0  0  0  0  0
   -3.1518   -0.8409   -1.2519 C   0  0  0  0  0  0  0  0  0  0  0  0
   -3.8791   -1.4306   -0.1088 N   0  0  0  0  0  0  0  0  0  0  0  0
   -5.2226   -1.7599   -0.2747 C   0  0  0  0  0  0  0  0  0  0  0  0
   -5.6729   -2.3761   -1.4447 C   0  0  0  0  0  0  0  0  0  0  0  0
   -7.0185   -2.7182   -1.5875 C   0  0  0  0  0  0  0  0  0  0  0  0
   -7.8980   -2.4500   -0.5514 C   0  0  0  0  0  0  0  0  0  0  0  0
   -7.3854   -1.8580    0.5851 C   0  0  0  0  0  0  0  0  0  0  0  0
   -6.0843   -1.5212    0.7396 N   0  0  0  0  0  0  0  0  0  0  0  0
   -3.5167   -0.9086    1.2245 C   0  0  0  0  0  0  0  0  0  0  0  0
   -1.9895   -0.7094    1.3187 C   0  0  0  0  0  0  0  0  0  0  0  0
    0.5074   -0.8048   -0.4954 C   0  0  0  0  0  0  0  0  0  0  0  0
    1.8978   -0.8430   -0.6725 C   0  0  0  0  0  0  0  0  0  0  0  0
    2.3872   -1.9387   -1.3271 O   0  0  0  0  0  0  0  0  0  0  0  0
    5.8366   -6.1787    1.5012 H   0  0  0  0  0  0  0  0  0  0  0  0
    6.9490   -4.8215    1.6754 H   0  0  0  0  0  0  0  0  0  0  0  0
    6.8949   -5.7276    0.1415 H   0  0  0  0  0  0  0  0  0  0  0  0
    3.7640   -5.9567    0.1338 H   0  0  0  0  0  0  0  0  0  0  0  0
    2.0912   -4.4321   -0.8490 H   0  0  0  0  0  0  0  0  0  0  0  0
    6.5009   -2.6652    0.5581 H   0  0  0  0  0  0  0  0  0  0  0  0
    5.9115   -0.5912   -0.3021 H   0  0  0  0  0  0  0  0  0  0  0  0
    2.6734    2.1763    0.6461 H   0  0  0  0  0  0  0  0  0  0  0  0
    0.0085    4.2931   -1.1915 H   0  0  0  0  0  0  0  0  0  0  0  0
    1.6561    3.6238   -1.2692 H   0  0  0  0  0  0  0  0  0  0  0  0
    2.5874    5.8750   -0.6670 H   0  0  0  0  0  0  0  0  0  0  0  0
    1.6394    5.9283   -2.1553 H   0  0  0  0  0  0  0  0  0  0  0  0
   -0.9267    6.0500    0.3488 H   0  0  0  0  0  0  0  0  0  0  0  0
   -0.1108    7.3337    1.2458 H   0  0  0  0  0  0  0  0  0  0  0  0
    1.8109    5.7580    1.7382 H   0  0  0  0  0  0  0  0  0  0  0  0
    0.2849    5.2073    2.4220 H   0  0  0  0  0  0  0  0  0  0  0  0
   -1.7897    0.7842   -1.7436 H   0  0  0  0  0  0  0  0  0  0  0  0
   -3.0887    1.2344   -0.6527 H   0  0  0  0  0  0  0  0  0  0  0  0
   -2.4530   -1.5973   -1.6281 H   0  0  0  0  0  0  0  0  0  0  0  0
   -3.8232   -0.5784   -2.0785 H   0  0  0  0  0  0  0  0  0  0  0  0
   -4.9820   -2.6192   -2.2443 H   0  0  0  0  0  0  0  0  0  0  0  0
   -7.3682   -3.1990   -2.4958 H   0  0  0  0  0  0  0  0  0  0  0  0
   -8.9493   -2.7036   -0.6216 H   0  0  0  0  0  0  0  0  0  0  0  0
   -8.0239   -1.6319    1.4352 H   0  0  0  0  0  0  0  0  0  0  0  0
   -4.0238    0.0472    1.4134 H   0  0  0  0  0  0  0  0  0  0  0  0
   -3.8156   -1.6199    2.0047 H   0  0  0  0  0  0  0  0  0  0  0  0
   -1.5022   -1.6824    1.1769 H   0  0  0  0  0  0  0  0  0  0  0  0
   -1.7317   -0.3505    2.3220 H   0  0  0  0  0  0  0  0  0  0  0  0
   -0.0803   -1.6602   -0.8218 H   0  0  0  0  0  0  0  0  0  0  0  0
  1  2  1  0
  2  3  2  0
  3  4  1  0
  4  5  2  0
  5  6  1  0
  6  7  2  0
  6  8  1  0
  8  9  1  0
  9 10  2  0
  9 11  1  0
 11 12  2  0
 12 13  1  0
 13 14  1  0
 14 15  2  0
 14 16  2  0
 14 17  1  0
 17 18  1  0
 18 19  1  0
 19 20  1  0
 20 21  1  0
 21 22  1  0
 13 23  2  0
 23 24  1  0
 24 25  1  0
 25 26  1  0
 26 27  1  0
 27 28  1  0
 28 29  2  0
 29 30  1  0
 30 31  2  0
 31 32  1  0
 32 33  2  0
 27 34  1  0
 34 35  1  0
 23 36  1  0
 36 37  2  0
 37 38  1  0
  7  2  1  0
 37 11  1  0
 38  5  1  0
 22 17  1  0
 35 24  1  0
 33 28  1  0
  1 39  1  0
  1 40  1  0
  1 41  1  0
  3 42  1  0
  4 43  1  0
  7 44  1  0
  8 45  1  0
 12 46  1  0
 18 47  1  0
 18 48  1  0
 19 49  1  0
 19 50  1  0
 21 51  1  0
 21 52  1  0
 22 53  1  0
 22 54  1  0
 25 55  1  0
 25 56  1  0
 26 57  1  0
 26 58  1  0
 29 59  1  0
 30 60  1  0
 31 61  1  0
 32 62  1  0
 34 63  1  0
 34 64  1  0
 35 65  1  0
 35 66  1  0
 36 67  1  0
M  END
$$$$
