
     RDKit          3D

 74 80  0  0  0  0  0  0  0  0999 V2000
   -4.7406    0.1461    3.8674 C   0  0  0  0  0  0  0  0  0  0  0  0
   -5.0543   -0.6765    2.7432 O   0  0  0  0  0  0  0  0  0  0  0  0
   -4.9205    0.0283    1.5755 C   0  0  0  0  0  0  0  0  0  0  0  0
   -3.8140   -0.2440    0.7701 C   0  0  0  0  0  0  0  0  0  0  0  0
   -3.6355    0.4190   -0.4566 C   0  0  0  0  0  0  0  0  0  0  0  0
   -2.4144    0.1948   -1.3508 C   0  0  2  0  0  0  0  0  0  0  0  0
   -1.8416   -1.2338   -1.2640 C   0  0  0  0  0  0  0  0  0  0  0  0
   -2.5941   -2.2904   -1.8115 C   0  0  0  0  0  0  0  0  0  0  0  0
   -2.1057   -3.5732   -1.6955 C   0  0  0  0  0  0  0  0  0  0  0  0
   -0.9156   -3.8375   -1.0690 C   0  0  0  0  0  0  0  0  0  0  0  0
   -0.1412   -2.8403   -0.5187 C   0  0  0  0  0  0  0  0  0  0  0  0
   -0.5953   -1.5124   -0.6100 C   0  0  0  0  0  0  0  0  0  0  0  0
    0.2876   -0.4092   -0.0381 C   0  0  1  0  0  0  0  0  0  0  0  0
    1.3155   -0.1674   -0.9961 O   0  0  0  0  0  0  0  0  0  0  0  0
    2.6278   -0.4652   -0.5235 C   0  0  2  0  0  0  0  0  0  0  0  0
    2.9444    0.3733    0.5884 O   0  0  0  0  0  0  0  0  0  0  0  0
    4.2538    0.1007    1.0779 C   0  0  2  0  0  0  0  0  0  0  0  0
    4.5592    0.9123    2.3320 C   0  0  0  0  0  0  0  0  0  0  0  0
    5.8813    0.6237    2.7848 O   0  0  0  0  0  0  0  0  0  0  0  0
    6.8484    0.8939    1.7680 C   0  0  1  0  0  0  0  0  0  0  0  0
    8.2129    0.5031    2.3053 C   0  0  0  0  0  0  0  0  0  0  0  0
    6.6050    0.1275    0.5870 O   0  0  0  0  0  0  0  0  0  0  0  0
    5.3212    0.4416    0.0386 C   0  0  1  0  0  0  0  0  0  0  0  0
    5.0654   -0.3623   -1.2384 C   0  0  2  0  0  0  0  0  0  0  0  0
    5.9176    0.1046   -2.2957 O   0  0  0  0  0  0  0  0  0  0  0  0
    3.6060   -0.2282   -1.6971 C   0  0  1  0  0  0  0  0  0  0  0  0
    3.3897   -1.1359   -2.7996 O   0  0  0  0  0  0  0  0  0  0  0  0
   -0.5228    0.8637    0.1489 C   0  0  1  0  0  0  0  0  0  0  0  0
    0.2254    2.1498    0.3946 C   0  0  0  0  0  0  0  0  0  0  0  0
   -0.7173    3.1647    0.0191 O   0  0  0  0  0  0  0  0  0  0  0  0
   -1.5882    2.6524   -0.9087 C   0  0  0  0  0  0  0  0  0  0  0  0
   -2.4163    3.3193   -1.5077 O   0  0  0  0  0  0  0  0  0  0  0  0
   -1.2781    1.1985   -1.1239 C   0  0  2  0  0  0  0  0  0  0  0  0
   -0.6131   -5.1639   -1.0676 O   0  0  0  0  0  0  0  0  0  0  0  0
   -1.7735   -5.7106   -1.7231 C   0  0  0  0  0  0  0  0  0  0  0  0
   -2.7077   -4.7019   -2.1564 O   0  0  0  0  0  0  0  0  0  0  0  0
   -4.6147    1.3494   -0.8603 C   0  0  0  0  0  0  0  0  0  0  0  0
   -5.7243    1.6321   -0.0572 C   0  0  0  0  0  0  0  0  0  0  0  0
   -6.7138    2.5395   -0.3496 O   0  0  0  0  0  0  0  0  0  0  0  0
   -6.3784    3.5224   -1.3290 C   0  0  0  0  0  0  0  0  0  0  0  0
   -5.8787    0.9456    1.1510 C   0  0  0  0  0  0  0  0  0  0  0  0
   -6.9874    1.1913    1.9218 O   0  0  0  0  0  0  0  0  0  0  0  0
   -3.6505    0.1774    4.0055 H   0  0  0  0  0  0  0  0  0  0  0  0
   -5.1897   -0.3142    4.7537 H   0  0  0  0  0  0  0  0  0  0  0  0
   -5.1302    1.1689    3.7861 H   0  0  0  0  0  0  0  0  0  0  0  0
   -3.1003   -0.9868    1.1161 H   0  0  0  0  0  0  0  0  0  0  0  0
   -2.7453    0.3240   -2.3915 H   0  0  0  0  0  0  0  0  0  0  0  0
   -3.5465   -2.1136   -2.3013 H   0  0  0  0  0  0  0  0  0  0  0  0
    0.7923   -3.0938   -0.0293 H   0  0  0  0  0  0  0  0  0  0  0  0
    0.6926   -0.7252    0.9317 H   0  0  0  0  0  0  0  0  0  0  0  0
    2.6512   -1.5198   -0.2195 H   0  0  0  0  0  0  0  0  0  0  0  0
    4.3309   -0.9624    1.3482 H   0  0  0  0  0  0  0  0  0  0  0  0
    4.4500    1.9888    2.1585 H   0  0  0  0  0  0  0  0  0  0  0  0
    3.8586    0.6493    3.1302 H   0  0  0  0  0  0  0  0  0  0  0  0
    6.8498    1.9657    1.5306 H   0  0  0  0  0  0  0  0  0  0  0  0
    8.4560    1.0689    3.2101 H   0  0  0  0  0  0  0  0  0  0  0  0
    8.9901    0.6743    1.5529 H   0  0  0  0  0  0  0  0  0  0  0  0
    8.2398   -0.5640    2.5648 H   0  0  0  0  0  0  0  0  0  0  0  0
    5.3054    1.5092   -0.2169 H   0  0  0  0  0  0  0  0  0  0  0  0
    5.3274   -1.4184   -1.0852 H   0  0  0  0  0  0  0  0  0  0  0  0
    5.6481   -0.3983   -3.0881 H   0  0  0  0  0  0  0  0  0  0  0  0
    3.4451    0.7742   -2.1183 H   0  0  0  0  0  0  0  0  0  0  0  0
    2.8247   -1.8722   -2.4894 H   0  0  0  0  0  0  0  0  0  0  0  0
   -1.2269    0.7288    0.9798 H   0  0  0  0  0  0  0  0  0  0  0  0
    1.1267    2.2746   -0.2152 H   0  0  0  0  0  0  0  0  0  0  0  0
    0.4919    2.2677    1.4503 H   0  0  0  0  0  0  0  0  0  0  0  0
   -0.5976    1.1748   -1.9911 H   0  0  0  0  0  0  0  0  0  0  0  0
   -2.2800   -6.3884   -1.0261 H   0  0  0  0  0  0  0  0  0  0  0  0
   -1.4462   -6.2888   -2.5932 H   0  0  0  0  0  0  0  0  0  0  0  0
   -4.4880    1.8520   -1.8135 H   0  0  0  0  0  0  0  0  0  0  0  0
   -6.3405    3.0735   -2.3265 H   0  0  0  0  0  0  0  0  0  0  0  0
   -5.4342    4.0194   -1.0848 H   0  0  0  0  0  0  0  0  0  0  0  0
   -7.1673    4.2782   -1.3290 H   0  0  0  0  0  0  0  0  0  0  0  0
   -7.5118    1.8315    1.4057 H   0  0  0  0  0  0  0  0  0  0  0  0
  1  2  1  0
  2  3  1  0
  3  4  2  0
  4  5  1  0
  5  6  1  0
  6  7  1  0
  7  8  2  0
  8  9  1  0
  9 10  2  0
 10 11  1  0
 11 12  2  0
 12 13  1  0
 13 14  1  0
 14 15  1  0
 15 16  1  0
 16 17  1  0
 17 18  1  0
 18 19  1  0
 19 20  1  0
 20 21  1  0
 20 22  1  0
 22 23  1  0
 23 24  1  0
 24 25  1  0
 24 26  1  0
 26 27  1  0
 13 28  1  0
 28 29  1  0
 29 30  1  0
 30 31  1  0
 31 32  2  0
 31 33  1  0
 10 34  1  0
 34 35  1  0
 35 36  1  0
  5 37  2  0
 37 38  1  0
 38 39  1  0
 39 40  1  0
 38 41  2  0
 41 42  1  0
 41  3  1  0
 33  6  1  0
 12  7  1  0
 26 15  1  0
 33 28  1  0
 36  9  1  0
 23 17  1  0
  1 43  1  0
  1 44  1  0
  1 45  1  0
  4 46  1  0
  6 47  1  6
  8 48  1  0
 11 49  1  0
 13 50  1  1
 15 51  1  1
 17 52  1  1
 18 53  1  0
 18 54  1  0
 20 55  1  6
 21 56  1  0
 21 57  1  0
 21 58  1  0
 23 59  1  6
 24 60  1  1
 25 61  1  0
 26 62  1  6
 27 63  1  0
 28 64  1  1
 29 65  1  0
 29 66  1  0
 33 67  1  6
 35 68  1  0
 35 69  1  0
 37 70  1  0
 40 71  1  0
 40 72  1  0
 40 73  1  0
 42 74  1  0
M  END
$$$$
