
     RDKit          3D

 51 53  0  0  0  0  0  0  0  0999 V2000
    7.6959    0.6956   -0.2510 C   0  0  0  0  0  0  0  0  0  0  0  0
    6.4049    0.1018   -0.2186 O   0  0  0  0  0  0  0  0  0  0  0  0
    5.3871    1.0309   -0.5874 C   0  0  0  0  0  0  0  0  0  0  0  0
    4.0402    0.3270   -0.4964 C   0  0  0  0  0  0  0  0  0  0  0  0
    2.9055    1.2429   -0.9362 C   0  0  0  0  0  0  0  0  0  0  0  0
    1.6206    0.5856   -0.8306 N   0  0  0  0  0  0  0  0  0  0  0  0
    0.9137    0.5393    0.3573 C   0  0  0  0  0  0  0  0  0  0  0  0
    1.2924    1.1114    1.3783 O   0  0  0  0  0  0  0  0  0  0  0  0
   -0.3223   -0.3841    0.3449 C   0  0  0  0  0  0  0  0  0  0  0  0
    0.0272   -1.7796    0.7809 C   0  0  0  0  0  0  0  0  0  0  0  0
    0.5933   -2.2232    1.9648 C   0  0  0  0  0  0  0  0  0  0  0  0
    0.8152   -3.5964    2.1175 C   0  0  0  0  0  0  0  0  0  0  0  0
    0.4689   -4.5042    1.0994 C   0  0  0  0  0  0  0  0  0  0  0  0
   -0.1050   -4.0525   -0.0897 C   0  0  0  0  0  0  0  0  0  0  0  0
   -0.3103   -2.6920   -0.2183 C   0  0  0  0  0  0  0  0  0  0  0  0
   -0.8967   -1.9538   -1.3416 C   0  0  0  0  0  0  0  0  0  0  0  0
   -1.3318   -2.4605   -2.3570 O   0  0  0  0  0  0  0  0  0  0  0  0
   -0.8604   -0.6135   -1.0034 N   0  0  0  0  0  0  0  0  0  0  0  0
   -1.5755    0.4135   -1.7389 C   0  0  0  0  0  0  0  0  0  0  0  0
   -2.9035    0.7490   -1.1077 C   0  0  0  0  0  0  0  0  0  0  0  0
   -3.0770    1.9402   -0.3901 C   0  0  0  0  0  0  0  0  0  0  0  0
   -4.3049    2.2387    0.2125 C   0  0  0  0  0  0  0  0  0  0  0  0
   -5.3740    1.3492    0.1070 C   0  0  0  0  0  0  0  0  0  0  0  0
   -6.6191    1.5188    0.6465 O   0  0  0  0  0  0  0  0  0  0  0  0
   -6.8435    2.7138    1.3835 C   0  0  0  0  0  0  0  0  0  0  0  0
   -5.2032    0.1606   -0.6053 C   0  0  0  0  0  0  0  0  0  0  0  0
   -3.9799   -0.1408   -1.2076 C   0  0  0  0  0  0  0  0  0  0  0  0
    7.9308    1.0465   -1.2605 H   0  0  0  0  0  0  0  0  0  0  0  0
    7.7536    1.5256    0.4598 H   0  0  0  0  0  0  0  0  0  0  0  0
    8.4306   -0.0615    0.0356 H   0  0  0  0  0  0  0  0  0  0  0  0
    5.4112    1.8916    0.0909 H   0  0  0  0  0  0  0  0  0  0  0  0
    5.5670    1.3777   -1.6116 H   0  0  0  0  0  0  0  0  0  0  0  0
    3.8800   -0.0224    0.5315 H   0  0  0  0  0  0  0  0  0  0  0  0
    4.0539   -0.5810   -1.1128 H   0  0  0  0  0  0  0  0  0  0  0  0
    3.0307    1.5340   -1.9843 H   0  0  0  0  0  0  0  0  0  0  0  0
    2.8898    2.1540   -0.3278 H   0  0  0  0  0  0  0  0  0  0  0  0
    1.3339   -0.0534   -1.5657 H   0  0  0  0  0  0  0  0  0  0  0  0
   -1.1101    0.0331    0.9799 H   0  0  0  0  0  0  0  0  0  0  0  0
    0.8661   -1.5284    2.7550 H   0  0  0  0  0  0  0  0  0  0  0  0
    1.2625   -3.9692    3.0372 H   0  0  0  0  0  0  0  0  0  0  0  0
    0.6496   -5.5673    1.2430 H   0  0  0  0  0  0  0  0  0  0  0  0
   -0.3828   -4.7376   -0.8837 H   0  0  0  0  0  0  0  0  0  0  0  0
   -0.9394    1.3031   -1.8007 H   0  0  0  0  0  0  0  0  0  0  0  0
   -1.7444    0.0729   -2.7675 H   0  0  0  0  0  0  0  0  0  0  0  0
   -2.2567    2.6481   -0.2901 H   0  0  0  0  0  0  0  0  0  0  0  0
   -4.3909    3.1729    0.7573 H   0  0  0  0  0  0  0  0  0  0  0  0
   -7.8766    2.6954    1.7436 H   0  0  0  0  0  0  0  0  0  0  0  0
   -6.7285    3.5975    0.7472 H   0  0  0  0  0  0  0  0  0  0  0  0
   -6.1870    2.7674    2.2583 H   0  0  0  0  0  0  0  0  0  0  0  0
   -6.0306   -0.5398   -0.6913 H   0  0  0  0  0  0  0  0  0  0  0  0
   -3.8707   -1.0766   -1.7541 H   0  0  0  0  0  0  0  0  0  0  0  0
  1  2  1  0
  2  3  1  0
  3  4  1  0
  4  5  1  0
  5  6  1  0
  6  7  1  0
  7  8  2  0
  7  9  1  0
  9 10  1  0
 10 11  2  0
 11 12  1  0
 12 13  2  0
 13 14  1  0
 14 15  2  0
 15 16  1  0
 16 17  2  0
 16 18  1  0
 18 19  1  0
 19 20  1  0
 20 21  2  0
 21 22  1  0
 22 23  2  0
 23 24  1  0
 24 25  1  0
 23 26  1  0
 26 27  2  0
 18  9  1  0
 27 20  1  0
 15 10  1  0
  1 28  1  0
  1 29  1  0
  1 30  1  0
  3 31  1  0
  3 32  1  0
  4 33  1  0
  4 34  1  0
  5 35  1  0
  5 36  1  0
  6 37  1  0
  9 38  1  0
 11 39  1  0
 12 40  1  0
 13 41  1  0
 14 42  1  0
 19 43  1  0
 19 44  1  0
 21 45  1  0
 22 46  1  0
 25 47  1  0
 25 48  1  0
 25 49  1  0
 26 50  1  0
 27 51  1  0
M  END
$$$$
