
     RDKit          3D

 44 46  0  0  0  0  0  0  0  0999 V2000
   -4.6209   -1.2930   -1.0145 C   0  0  0  0  0  0  0  0  0  0  0  0
   -4.6272    0.1938   -1.3256 C   0  0  0  0  0  0  0  0  0  0  0  0
   -4.5606    0.9678   -0.1280 O   0  0  0  0  0  0  0  0  0  0  0  0
   -3.3292    1.2481    0.4038 C   0  0  0  0  0  0  0  0  0  0  0  0
   -2.0940    0.8277   -0.0873 C   0  0  0  0  0  0  0  0  0  0  0  0
   -0.9003    1.1814    0.5732 C   0  0  0  0  0  0  0  0  0  0  0  0
    0.4397    0.7254    0.0285 C   0  0  0  0  0  0  0  0  0  0  0  0
    0.5286   -0.7278   -0.1026 N   0  0  0  0  0  0  0  0  0  0  0  0
    0.5665   -1.4334    1.1803 C   0  0  0  0  0  0  0  0  0  0  0  0
    1.0794   -2.8257    0.8318 C   0  0  0  0  0  0  0  0  0  0  0  0
    1.6372   -2.7182   -0.5850 C   0  0  0  0  0  0  0  0  0  0  0  0
    1.6735   -1.2219   -0.8916 C   0  0  0  0  0  0  0  0  0  0  0  0
    2.9962   -0.5697   -0.5726 C   0  0  0  0  0  0  0  0  0  0  0  0
    3.7036    0.3591   -1.3782 C   0  0  0  0  0  0  0  0  0  0  0  0
    4.8332    0.6505   -0.6564 C   0  0  0  0  0  0  0  0  0  0  0  0
    5.9984    1.5248   -0.8727 C   0  0  0  0  0  0  0  0  0  0  0  0
    4.8153   -0.0544    0.5045 O   0  0  0  0  0  0  0  0  0  0  0  0
    3.6681   -0.8223    0.5610 N   0  0  0  0  0  0  0  0  0  0  0  0
   -0.9629    1.9711    1.7317 C   0  0  0  0  0  0  0  0  0  0  0  0
   -2.1934    2.3973    2.2274 C   0  0  0  0  0  0  0  0  0  0  0  0
   -3.3568    2.0327    1.5626 C   0  0  0  0  0  0  0  0  0  0  0  0
   -4.5529    2.4618    2.0734 O   0  0  0  0  0  0  0  0  0  0  0  0
   -4.7530   -1.8791   -1.9285 H   0  0  0  0  0  0  0  0  0  0  0  0
   -5.4281   -1.5416   -0.3175 H   0  0  0  0  0  0  0  0  0  0  0  0
   -3.6854   -1.6001   -0.5376 H   0  0  0  0  0  0  0  0  0  0  0  0
   -5.5848    0.4415   -1.7979 H   0  0  0  0  0  0  0  0  0  0  0  0
   -3.8564    0.4757   -2.0510 H   0  0  0  0  0  0  0  0  0  0  0  0
   -2.0145    0.2059   -0.9729 H   0  0  0  0  0  0  0  0  0  0  0  0
    1.2483    1.1223    0.6553 H   0  0  0  0  0  0  0  0  0  0  0  0
    0.5494    1.1949   -0.9583 H   0  0  0  0  0  0  0  0  0  0  0  0
    1.2437   -0.9551    1.8982 H   0  0  0  0  0  0  0  0  0  0  0  0
   -0.4250   -1.4913    1.6416 H   0  0  0  0  0  0  0  0  0  0  0  0
    0.2749   -3.5688    0.8659 H   0  0  0  0  0  0  0  0  0  0  0  0
    1.8557   -3.1402    1.5377 H   0  0  0  0  0  0  0  0  0  0  0  0
    0.9458   -3.2214   -1.2735 H   0  0  0  0  0  0  0  0  0  0  0  0
    2.6100   -3.2125   -0.6780 H   0  0  0  0  0  0  0  0  0  0  0  0
    1.4678   -1.0723   -1.9592 H   0  0  0  0  0  0  0  0  0  0  0  0
    3.4225    0.7560   -2.3420 H   0  0  0  0  0  0  0  0  0  0  0  0
    6.0678    2.2750   -0.0791 H   0  0  0  0  0  0  0  0  0  0  0  0
    6.9226    0.9388   -0.8763 H   0  0  0  0  0  0  0  0  0  0  0  0
    5.9239    2.0487   -1.8306 H   0  0  0  0  0  0  0  0  0  0  0  0
   -0.0537    2.2538    2.2575 H   0  0  0  0  0  0  0  0  0  0  0  0
   -2.2473    3.0053    3.1252 H   0  0  0  0  0  0  0  0  0  0  0  0
   -5.2260    2.0892    1.4713 H   0  0  0  0  0  0  0  0  0  0  0  0
  1  2  1  0
  2  3  1  0
  3  4  1  0
  4  5  2  0
  5  6  1  0
  6  7  1  0
  7  8  1  0
  8  9  1  0
  9 10  1  0
 10 11  1  0
 11 12  1  0
 12 13  1  0
 13 14  1  0
 14 15  2  0
 15 16  1  0
 15 17  1  0
 17 18  1  0
  6 19  2  0
 19 20  1  0
 20 21  2  0
 21 22  1  0
 21  4  1  0
 12  8  1  0
 18 13  2  0
  1 23  1  0
  1 24  1  0
  1 25  1  0
  2 26  1  0
  2 27  1  0
  5 28  1  0
  7 29  1  0
  7 30  1  0
  9 31  1  0
  9 32  1  0
 10 33  1  0
 10 34  1  0
 11 35  1  0
 11 36  1  0
 12 37  1  0
 14 38  1  0
 16 39  1  0
 16 40  1  0
 16 41  1  0
 19 42  1  0
 20 43  1  0
 22 44  1  0
M  END
$$$$
