
     RDKit          3D

 46 48  0  0  0  0  0  0  0  0999 V2000
   -6.8857    0.4738   -1.4763 C   0  0  0  0  0  0  0  0  0  0  0  0
   -5.3718    0.4465   -1.6188 C   0  0  0  0  0  0  0  0  0  0  0  0
   -4.6646   -0.3220   -0.4983 C   0  0  0  0  0  0  0  0  0  0  0  0
   -4.8318    0.3379    0.8710 C   0  0  0  0  0  0  0  0  0  0  0  0
   -3.8854   -0.5380    2.1541 S   0  0  0  0  0  0  0  0  0  0  0  0
   -2.2677   -0.0143    1.8050 C   0  0  0  0  0  0  0  0  0  0  0  0
   -1.9916    1.0096    1.0707 N   0  0  0  0  0  0  0  0  0  0  0  0
   -0.6666    1.2796    0.8896 C   0  0  0  0  0  0  0  0  0  0  0  0
    0.3417    0.5891    1.4305 C   0  0  0  0  0  0  0  0  0  0  0  0
   -0.0064   -0.5502    2.2943 C   0  0  0  0  0  0  0  0  0  0  0  0
    0.8512   -1.2067    2.8723 O   0  0  0  0  0  0  0  0  0  0  0  0
   -1.3381   -0.7991    2.4096 N   0  0  0  0  0  0  0  0  0  0  0  0
    1.7771    0.8836    1.1477 C   0  0  0  0  0  0  0  0  0  0  0  0
    2.3107   -0.1602    0.1588 C   0  0  0  0  0  0  0  0  0  0  0  0
    1.6139   -0.5790   -0.7613 O   0  0  0  0  0  0  0  0  0  0  0  0
    3.6280   -0.5046    0.4020 N   0  0  0  0  0  0  0  0  0  0  0  0
    4.4470   -1.3982   -0.3312 C   0  0  0  0  0  0  0  0  0  0  0  0
    4.0309   -2.0435   -1.4985 C   0  0  0  0  0  0  0  0  0  0  0  0
    4.8916   -2.9151   -2.1760 C   0  0  0  0  0  0  0  0  0  0  0  0
    6.1778   -3.1524   -1.6966 C   0  0  0  0  0  0  0  0  0  0  0  0
    6.6109   -2.5158   -0.5364 C   0  0  0  0  0  0  0  0  0  0  0  0
    5.7520   -1.6449    0.1391 C   0  0  0  0  0  0  0  0  0  0  0  0
    6.3403   -0.8728    1.5747 Cl  0  0  0  0  0  0  0  0  0  0  0  0
    2.0069    2.2809    0.5740 C   0  0  0  0  0  0  0  0  0  0  0  0
    0.8437    2.8112   -0.2390 C   0  0  0  0  0  0  0  0  0  0  0  0
    0.9905    3.7150   -1.0591 O   0  0  0  0  0  0  0  0  0  0  0  0
   -0.3960    2.3197    0.0563 N   0  0  0  0  0  0  0  0  0  0  0  0
   -7.2915   -0.5394   -1.3945 H   0  0  0  0  0  0  0  0  0  0  0  0
   -7.3366    0.9495   -2.3531 H   0  0  0  0  0  0  0  0  0  0  0  0
   -7.1955    1.0441   -0.5957 H   0  0  0  0  0  0  0  0  0  0  0  0
   -5.1210   -0.0261   -2.5761 H   0  0  0  0  0  0  0  0  0  0  0  0
   -4.9910    1.4735   -1.6636 H   0  0  0  0  0  0  0  0  0  0  0  0
   -3.6019   -0.3865   -0.7616 H   0  0  0  0  0  0  0  0  0  0  0  0
   -5.0468   -1.3502   -0.4688 H   0  0  0  0  0  0  0  0  0  0  0  0
   -4.5497    1.3953    0.8447 H   0  0  0  0  0  0  0  0  0  0  0  0
   -5.8818    0.2960    1.1770 H   0  0  0  0  0  0  0  0  0  0  0  0
   -1.6362   -1.5714    2.9853 H   0  0  0  0  0  0  0  0  0  0  0  0
    2.3486    0.8073    2.0821 H   0  0  0  0  0  0  0  0  0  0  0  0
    4.0705   -0.1314    1.2368 H   0  0  0  0  0  0  0  0  0  0  0  0
    3.0401   -1.8917   -1.9154 H   0  0  0  0  0  0  0  0  0  0  0  0
    4.5496   -3.4088   -3.0833 H   0  0  0  0  0  0  0  0  0  0  0  0
    6.8403   -3.8314   -2.2274 H   0  0  0  0  0  0  0  0  0  0  0  0
    7.6149   -2.7006   -0.1639 H   0  0  0  0  0  0  0  0  0  0  0  0
    2.9055    2.3102   -0.0532 H   0  0  0  0  0  0  0  0  0  0  0  0
    2.1542    2.9912    1.3977 H   0  0  0  0  0  0  0  0  0  0  0  0
   -1.1803    2.7408   -0.4250 H   0  0  0  0  0  0  0  0  0  0  0  0
  1  2  1  0
  2  3  1  0
  3  4  1  0
  4  5  1  0
  5  6  1  0
  6  7  2  0
  7  8  1  0
  8  9  2  0
  9 10  1  0
 10 11  2  0
 10 12  1  0
  9 13  1  0
 13 14  1  0
 14 15  2  0
 14 16  1  0
 16 17  1  0
 17 18  2  0
 18 19  1  0
 19 20  2  0
 20 21  1  0
 21 22  2  0
 22 23  1  0
 13 24  1  0
 24 25  1  0
 25 26  2  0
 25 27  1  0
 12  6  1  0
 22 17  1  0
 27  8  1  0
  1 28  1  0
  1 29  1  0
  1 30  1  0
  2 31  1  0
  2 32  1  0
  3 33  1  0
  3 34  1  0
  4 35  1  0
  4 36  1  0
 12 37  1  0
 13 38  1  0
 16 39  1  0
 18 40  1  0
 19 41  1  0
 20 42  1  0
 21 43  1  0
 24 44  1  0
 24 45  1  0
 27 46  1  0
M  END
$$$$
