
     RDKit          3D

 25 27  0  0  0  0  0  0  0  0999 V2000
    0.2040    2.1231   -0.0167 O   0  0  0  0  0  0  0  0  0  0  0  0
    0.5115    0.9404    0.0364 C   0  0  0  0  0  0  0  0  0  0  0  0
    1.9386    0.5663   -0.0038 C   0  0  0  0  0  0  0  0  0  0  0  0
    3.0057    1.4524   -0.0992 C   0  0  0  0  0  0  0  0  0  0  0  0
    4.2999    0.9301   -0.1254 C   0  0  0  0  0  0  0  0  0  0  0  0
    4.5056   -0.4557   -0.0566 C   0  0  0  0  0  0  0  0  0  0  0  0
    3.4199   -1.3325    0.0391 C   0  0  0  0  0  0  0  0  0  0  0  0
    2.1377   -0.8047    0.0645 C   0  0  0  0  0  0  0  0  0  0  0  0
    0.6139   -1.6772    0.1787 S   0  0  0  0  0  0  0  0  0  0  0  0
   -0.3000   -0.2014    0.1352 N   0  0  0  0  0  0  0  0  0  0  0  0
   -1.7327   -0.2084    0.1971 C   0  0  0  0  0  0  0  0  0  0  0  0
   -2.4785    0.9807    0.1624 C   0  0  0  0  0  0  0  0  0  0  0  0
   -3.8787    0.9743    0.2228 C   0  0  0  0  0  0  0  0  0  0  0  0
   -4.5708   -0.2260    0.3198 C   0  0  0  0  0  0  0  0  0  0  0  0
   -3.8620   -1.4195    0.3563 C   0  0  0  0  0  0  0  0  0  0  0  0
   -2.4622   -1.4093    0.2957 C   0  0  0  0  0  0  0  0  0  0  0  0
    2.8330    2.5237   -0.1518 H   0  0  0  0  0  0  0  0  0  0  0  0
    5.1532    1.6011   -0.1996 H   0  0  0  0  0  0  0  0  0  0  0  0
    5.5192   -0.8511   -0.0779 H   0  0  0  0  0  0  0  0  0  0  0  0
    3.5842   -2.4046    0.0921 H   0  0  0  0  0  0  0  0  0  0  0  0
   -2.0029    1.9533    0.0875 H   0  0  0  0  0  0  0  0  0  0  0  0
   -4.4219    1.9158    0.1934 H   0  0  0  0  0  0  0  0  0  0  0  0
   -5.6563   -0.2302    0.3666 H   0  0  0  0  0  0  0  0  0  0  0  0
   -4.3929   -2.3651    0.4320 H   0  0  0  0  0  0  0  0  0  0  0  0
   -1.9678   -2.3756    0.3286 H   0  0  0  0  0  0  0  0  0  0  0  0
  1  2  2  0
  2  3  1  0
  3  4  2  0
  4  5  1  0
  5  6  2  0
  6  7  1  0
  7  8  2  0
  8  9  1  0
  9 10  1  0
 10 11  1  0
 11 12  2  0
 12 13  1  0
 13 14  2  0
 14 15  1  0
 15 16  2  0
 10  2  1  0
 16 11  1  0
  8  3  1  0
  4 17  1  0
  5 18  1  0
  6 19  1  0
  7 20  1  0
 12 21  1  0
 13 22  1  0
 14 23  1  0
 15 24  1  0
 16 25  1  0
M  END
$$$$
