
     RDKit          3D

 52 55  0  0  0  0  0  0  0  0999 V2000
   -4.3870    1.4076    2.1961 C   0  0  0  0  0  0  0  0  0  0  0  0
   -3.9531    0.5461    1.0075 C   0  0  1  0  0  0  0  0  0  0  0  0
   -3.1013   -0.5063    1.5050 O   0  0  0  0  0  0  0  0  0  0  0  0
   -2.0239   -0.7160    0.6832 C   0  0  0  0  0  0  0  0  0  0  0  0
   -0.8726    0.0503    0.8629 C   0  0  0  0  0  0  0  0  0  0  0  0
    0.2386   -0.1799    0.0511 C   0  0  0  0  0  0  0  0  0  0  0  0
    1.4471    0.6100    0.1972 C   0  0  0  0  0  0  0  0  0  0  0  0
    1.6479    1.8988    0.7428 C   0  0  0  0  0  0  0  0  0  0  0  0
    2.9254    2.2837    0.7092 N   0  0  0  0  0  0  0  0  0  0  0  0
    3.5593    1.2417    0.1383 N   0  0  0  0  0  0  0  0  0  0  0  0
    5.0070    1.3007   -0.0437 C   0  0  0  0  0  0  0  0  0  0  0  0
    5.4055    1.1824   -1.5214 C   0  0  0  0  0  0  0  0  0  0  0  0
    6.8323    0.6679   -1.6448 C   0  0  0  0  0  0  0  0  0  0  0  0
    6.9771   -0.6764   -1.0912 N   0  0  0  0  0  0  0  0  0  0  0  0
    6.1680   -0.9489    0.0945 C   0  0  0  0  0  0  0  0  0  0  0  0
    5.7493    0.3015    0.8582 C   0  0  0  0  0  0  0  0  0  0  0  0
    2.7139    0.2133   -0.1801 C   0  0  0  0  0  0  0  0  0  0  0  0
    0.1212   -1.1922   -0.9002 C   0  0  0  0  0  0  0  0  0  0  0  0
   -0.9791   -1.9695   -1.0766 N   0  0  0  0  0  0  0  0  0  0  0  0
   -2.0291   -1.7345   -0.2723 C   0  0  0  0  0  0  0  0  0  0  0  0
   -3.1506   -2.5380   -0.4774 N   0  0  0  0  0  0  0  0  0  0  0  0
   -5.1586    0.0040    0.2480 C   0  0  0  0  0  0  0  0  0  0  0  0
   -5.5409    0.5794   -0.9864 C   0  0  0  0  0  0  0  0  0  0  0  0
   -4.7183    1.9377   -1.6796 Cl  0  0  0  0  0  0  0  0  0  0  0  0
   -6.6338    0.0915   -1.7174 C   0  0  0  0  0  0  0  0  0  0  0  0
   -7.3787   -0.9766   -1.2348 C   0  0  0  0  0  0  0  0  0  0  0  0
   -7.0325   -1.5462   -0.0187 C   0  0  0  0  0  0  0  0  0  0  0  0
   -7.7748   -2.5690    0.4332 F   0  0  0  0  0  0  0  0  0  0  0  0
   -5.9443   -1.0698    0.7261 C   0  0  0  0  0  0  0  0  0  0  0  0
   -5.6384   -1.8618    2.2378 Cl  0  0  0  0  0  0  0  0  0  0  0  0
   -4.9274    0.8302    2.9522 H   0  0  0  0  0  0  0  0  0  0  0  0
   -3.5066    1.8232    2.6992 H   0  0  0  0  0  0  0  0  0  0  0  0
   -5.0269    2.2367    1.8760 H   0  0  0  0  0  0  0  0  0  0  0  0
   -3.3555    1.2040    0.3674 H   0  0  0  0  0  0  0  0  0  0  0  0
   -0.8570    0.8070    1.6411 H   0  0  0  0  0  0  0  0  0  0  0  0
    0.9159    2.5777    1.1607 H   0  0  0  0  0  0  0  0  0  0  0  0
    5.2988    2.3048    0.2972 H   0  0  0  0  0  0  0  0  0  0  0  0
    4.7329    0.5122   -2.0717 H   0  0  0  0  0  0  0  0  0  0  0  0
    5.3162    2.1631   -2.0047 H   0  0  0  0  0  0  0  0  0  0  0  0
    7.5199    1.3542   -1.1352 H   0  0  0  0  0  0  0  0  0  0  0  0
    7.1282    0.6467   -2.6990 H   0  0  0  0  0  0  0  0  0  0  0  0
    7.9625   -0.8645   -0.9036 H   0  0  0  0  0  0  0  0  0  0  0  0
    5.2796   -1.5091   -0.2164 H   0  0  0  0  0  0  0  0  0  0  0  0
    6.7266   -1.6154    0.7616 H   0  0  0  0  0  0  0  0  0  0  0  0
    5.1474    0.0246    1.7321 H   0  0  0  0  0  0  0  0  0  0  0  0
    6.6541    0.7851    1.2512 H   0  0  0  0  0  0  0  0  0  0  0  0
    3.0845   -0.6949   -0.6338 H   0  0  0  0  0  0  0  0  0  0  0  0
    0.9319   -1.4226   -1.5864 H   0  0  0  0  0  0  0  0  0  0  0  0
   -2.8873   -3.2613   -1.1403 H   0  0  0  0  0  0  0  0  0  0  0  0
   -3.4814   -2.9134    0.4067 H   0  0  0  0  0  0  0  0  0  0  0  0
   -6.9070    0.5451   -2.6681 H   0  0  0  0  0  0  0  0  0  0  0  0
   -8.2251   -1.3652   -1.7921 H   0  0  0  0  0  0  0  0  0  0  0  0
  1  2  1  0
  2  3  1  0
  3  4  1  0
  4  5  2  0
  5  6  1  0
  6  7  1  0
  7  8  1  0
  8  9  2  0
  9 10  1  0
 10 11  1  0
 11 12  1  0
 12 13  1  0
 13 14  1  0
 14 15  1  0
 15 16  1  0
 10 17  1  0
  6 18  2  0
 18 19  1  0
 19 20  2  0
 20 21  1  0
  2 22  1  0
 22 23  2  0
 23 24  1  0
 23 25  1  0
 25 26  2  0
 26 27  1  0
 27 28  1  0
 27 29  2  0
 29 30  1  0
 20  4  1  0
 29 22  1  0
 17  7  2  0
 16 11  1  0
  1 31  1  0
  1 32  1  0
  1 33  1  0
  2 34  1  6
  5 35  1  0
  8 36  1  0
 11 37  1  0
 12 38  1  0
 12 39  1  0
 13 40  1  0
 13 41  1  0
 14 42  1  0
 15 43  1  0
 15 44  1  0
 16 45  1  0
 16 46  1  0
 17 47  1  0
 18 48  1  0
 21 49  1  0
 21 50  1  0
 25 51  1  0
 26 52  1  0
M  END
$$$$
