
     RDKit          3D

 42 45  0  0  0  0  0  0  0  0999 V2000
    7.0443   -0.8140    0.9072 C   0  0  0  0  0  0  0  0  0  0  0  0
    5.6868   -0.4807    0.3607 C   0  0  0  0  0  0  0  0  0  0  0  0
    5.0334   -1.3756   -0.4988 C   0  0  0  0  0  0  0  0  0  0  0  0
    3.7593   -1.0836   -0.9886 C   0  0  0  0  0  0  0  0  0  0  0  0
    3.1295    0.1021   -0.6022 C   0  0  0  0  0  0  0  0  0  0  0  0
    1.5116    0.4806   -1.2388 S   0  0  0  0  0  6  0  0  0  0  0  0
    1.4103   -0.1387   -2.5463 O   0  0  0  0  0  0  0  0  0  0  0  0
    1.3109    1.9084   -1.0909 O   0  0  0  0  0  0  0  0  0  0  0  0
    0.5291   -0.2951   -0.2146 N   0  0  0  0  0  0  0  0  0  0  0  0
   -0.7594   -0.2797   -0.3279 C   0  0  0  0  0  0  0  0  0  0  0  0
   -1.5569    0.4212   -1.3738 C   0  0  0  0  0  0  0  0  0  0  0  0
   -2.8934    0.3777   -1.4243 C   0  0  0  0  0  0  0  0  0  0  0  0
   -3.7611    1.1686   -2.7043 S   0  0  0  0  0  0  0  0  0  0  0  0
   -4.5152    2.3928   -1.7572 C   0  0  0  0  0  0  0  0  0  0  0  0
   -4.1570    3.6469   -1.6391 N   0  0  0  0  0  0  0  0  0  0  0  0
   -5.1151    4.1481   -0.8011 C   0  0  0  0  0  0  0  0  0  0  0  0
   -6.0378    3.2724   -0.3878 N   0  0  0  0  0  0  0  0  0  0  0  0
   -5.6379    2.1549   -1.0243 N   0  0  0  0  0  0  0  0  0  0  0  0
   -3.6850   -0.3983   -0.4305 C   0  0  0  0  0  0  0  0  0  0  0  0
   -4.9130   -0.4472   -0.4618 O   0  0  0  0  0  0  0  0  0  0  0  0
   -2.9384   -1.1066    0.6251 C   0  0  0  0  0  0  0  0  0  0  0  0
   -3.6538   -1.8436    1.5825 C   0  0  0  0  0  0  0  0  0  0  0  0
   -2.9781   -2.5251    2.5945 C   0  0  0  0  0  0  0  0  0  0  0  0
   -1.5887   -2.4748    2.6548 C   0  0  0  0  0  0  0  0  0  0  0  0
   -0.8742   -1.7421    1.7043 C   0  0  0  0  0  0  0  0  0  0  0  0
   -1.5455   -1.0498    0.6817 C   0  0  0  0  0  0  0  0  0  0  0  0
    3.7654    1.0018    0.2567 C   0  0  0  0  0  0  0  0  0  0  0  0
    5.0397    0.7031    0.7421 C   0  0  0  0  0  0  0  0  0  0  0  0
    6.9451   -1.4395    1.7989 H   0  0  0  0  0  0  0  0  0  0  0  0
    7.6421   -1.3491    0.1614 H   0  0  0  0  0  0  0  0  0  0  0  0
    7.5951    0.0936    1.1732 H   0  0  0  0  0  0  0  0  0  0  0  0
    5.5185   -2.3035   -0.7949 H   0  0  0  0  0  0  0  0  0  0  0  0
    3.2683   -1.7795   -1.6650 H   0  0  0  0  0  0  0  0  0  0  0  0
   -1.0150    0.9871   -2.1257 H   0  0  0  0  0  0  0  0  0  0  0  0
   -5.1362    5.1815   -0.4787 H   0  0  0  0  0  0  0  0  0  0  0  0
   -6.1132    1.2682   -0.8760 H   0  0  0  0  0  0  0  0  0  0  0  0
   -4.7408   -1.8919    1.5434 H   0  0  0  0  0  0  0  0  0  0  0  0
   -3.5362   -3.0951    3.3342 H   0  0  0  0  0  0  0  0  0  0  0  0
   -1.0576   -3.0083    3.4411 H   0  0  0  0  0  0  0  0  0  0  0  0
    0.2121   -1.7200    1.7742 H   0  0  0  0  0  0  0  0  0  0  0  0
    3.2802    1.9294    0.5515 H   0  0  0  0  0  0  0  0  0  0  0  0
    5.5280    1.4035    1.4167 H   0  0  0  0  0  0  0  0  0  0  0  0
  1  2  1  0
  2  3  2  0
  3  4  1  0
  4  5  2  0
  5  6  1  0
  6  7  2  0
  6  8  2  0
  6  9  1  0
  9 10  2  0
 10 11  1  0
 11 12  2  0
 12 13  1  0
 13 14  1  0
 14 15  2  0
 15 16  1  0
 16 17  2  0
 17 18  1  0
 12 19  1  0
 19 20  2  0
 19 21  1  0
 21 22  2  0
 22 23  1  0
 23 24  2  0
 24 25  1  0
 25 26  2  0
  5 27  1  0
 27 28  2  0
 28  2  1  0
 26 10  1  0
 18 14  1  0
 26 21  1  0
  1 29  1  0
  1 30  1  0
  1 31  1  0
  3 32  1  0
  4 33  1  0
 11 34  1  0
 16 35  1  0
 18 36  1  0
 22 37  1  0
 23 38  1  0
 24 39  1  0
 25 40  1  0
 27 41  1  0
 28 42  1  0
M  END
$$$$
