
     RDKit          3D

 54 57  0  0  0  0  0  0  0  0999 V2000
    3.7105   -1.1906   -3.5818 C   0  0  0  0  0  0  0  0  0  0  0  0
    3.0986   -0.4424   -2.4373 C   0  0  0  0  0  0  0  0  0  0  0  0
    3.8932    0.0980   -1.4546 C   0  0  0  0  0  0  0  0  0  0  0  0
    3.2481    0.7751   -0.4458 C   0  0  0  0  0  0  0  0  0  0  0  0
    3.9430    1.3961    0.5987 N   0  0  0  0  0  0  0  0  0  0  0  0
    5.0784    0.9929    1.3260 C   0  0  0  0  0  0  0  0  0  0  0  0
    5.5993   -0.3055    1.2955 C   0  0  0  0  0  0  0  0  0  0  0  0
    6.7431   -0.6382    2.0286 C   0  0  0  0  0  0  0  0  0  0  0  0
    7.3846    0.3267    2.8007 C   0  0  0  0  0  0  0  0  0  0  0  0
    6.8810    1.6233    2.8430 C   0  0  0  0  0  0  0  0  0  0  0  0
    5.7369    1.9511    2.1110 C   0  0  0  0  0  0  0  0  0  0  0  0
    1.9136    0.9311   -0.4368 N   0  0  0  0  0  0  0  0  0  0  0  0
    1.1919    0.3725   -1.4222 C   0  0  0  0  0  0  0  0  0  0  0  0
   -0.1975    0.5434   -1.4213 N   0  0  0  0  0  0  0  0  0  0  0  0
   -0.7572    0.7921   -0.0861 C   0  0  0  0  0  0  0  0  0  0  0  0
   -2.2617    1.1082   -0.1682 C   0  0  0  0  0  0  0  0  0  0  0  0
   -3.0122    0.1275   -0.9636 N   0  0  0  0  0  0  0  0  0  0  0  0
   -4.3780   -0.1063   -0.8199 C   0  0  0  0  0  0  0  0  0  0  0  0
   -5.0335   -0.6530   -1.7087 O   0  0  0  0  0  0  0  0  0  0  0  0
   -5.0317    0.3020    0.5060 C   0  0  0  0  0  0  0  0  0  0  0  0
   -6.5576    0.1263    0.4903 C   0  0  0  0  0  0  0  0  0  0  0  0
   -6.7890   -1.2439    1.1063 C   0  0  0  0  0  0  0  0  0  0  0  0
   -5.7739   -1.2800    2.2332 C   0  0  0  0  0  0  0  0  0  0  0  0
   -4.5392   -0.5889    1.6609 C   0  0  0  0  0  0  0  0  0  0  0  0
   -2.4173   -0.1594   -2.2749 C   0  0  0  0  0  0  0  0  0  0  0  0
   -0.9151   -0.4785   -2.2014 C   0  0  0  0  0  0  0  0  0  0  0  0
    1.7588   -0.3171   -2.4243 N   0  0  0  0  0  0  0  0  0  0  0  0
    2.9379   -1.5589   -4.2647 H   0  0  0  0  0  0  0  0  0  0  0  0
    4.2762   -2.0516   -3.2122 H   0  0  0  0  0  0  0  0  0  0  0  0
    4.3807   -0.5355   -4.1471 H   0  0  0  0  0  0  0  0  0  0  0  0
    4.9712    0.0196   -1.4912 H   0  0  0  0  0  0  0  0  0  0  0  0
    3.2697    1.8896    1.1774 H   0  0  0  0  0  0  0  0  0  0  0  0
    5.1075   -1.0906    0.7291 H   0  0  0  0  0  0  0  0  0  0  0  0
    7.1276   -1.6545    2.0000 H   0  0  0  0  0  0  0  0  0  0  0  0
    8.2736    0.0677    3.3697 H   0  0  0  0  0  0  0  0  0  0  0  0
    7.3783    2.3821    3.4414 H   0  0  0  0  0  0  0  0  0  0  0  0
    5.3654    2.9728    2.1451 H   0  0  0  0  0  0  0  0  0  0  0  0
   -0.6117   -0.0927    0.5481 H   0  0  0  0  0  0  0  0  0  0  0  0
   -0.2723    1.6468    0.4015 H   0  0  0  0  0  0  0  0  0  0  0  0
   -2.4147    2.0831   -0.6478 H   0  0  0  0  0  0  0  0  0  0  0  0
   -2.6577    1.1820    0.8459 H   0  0  0  0  0  0  0  0  0  0  0  0
   -4.8132    1.3611    0.6815 H   0  0  0  0  0  0  0  0  0  0  0  0
   -7.0104    0.2119   -0.5018 H   0  0  0  0  0  0  0  0  0  0  0  0
   -7.0177    0.8922    1.1278 H   0  0  0  0  0  0  0  0  0  0  0  0
   -7.8138   -1.3701    1.4665 H   0  0  0  0  0  0  0  0  0  0  0  0
   -6.5796   -2.0345    0.3766 H   0  0  0  0  0  0  0  0  0  0  0  0
   -5.5600   -2.2990    2.5689 H   0  0  0  0  0  0  0  0  0  0  0  0
   -6.1495   -0.7147    3.0946 H   0  0  0  0  0  0  0  0  0  0  0  0
   -4.0455    0.0040    2.4385 H   0  0  0  0  0  0  0  0  0  0  0  0
   -3.8181   -1.3400    1.3182 H   0  0  0  0  0  0  0  0  0  0  0  0
   -2.9362   -0.9959   -2.7556 H   0  0  0  0  0  0  0  0  0  0  0  0
   -2.5817    0.7290   -2.8977 H   0  0  0  0  0  0  0  0  0  0  0  0
   -0.7803   -1.4631   -1.7339 H   0  0  0  0  0  0  0  0  0  0  0  0
   -0.5428   -0.5331   -3.2318 H   0  0  0  0  0  0  0  0  0  0  0  0
  1  2  1  0
  2  3  2  0
  3  4  1  0
  4  5  1  0
  5  6  1  0
  6  7  2  0
  7  8  1  0
  8  9  2  0
  9 10  1  0
 10 11  2  0
  4 12  2  0
 12 13  1  0
 13 14  1  0
 14 15  1  0
 15 16  1  0
 16 17  1  0
 17 18  1  0
 18 19  2  0
 18 20  1  0
 20 21  1  0
 21 22  1  0
 22 23  1  0
 23 24  1  0
 17 25  1  0
 25 26  1  0
 13 27  2  0
 27  2  1  0
 11  6  1  0
 26 14  1  0
 24 20  1  0
  1 28  1  0
  1 29  1  0
  1 30  1  0
  3 31  1  0
  5 32  1  0
  7 33  1  0
  8 34  1  0
  9 35  1  0
 10 36  1  0
 11 37  1  0
 15 38  1  0
 15 39  1  0
 16 40  1  0
 16 41  1  0
 20 42  1  0
 21 43  1  0
 21 44  1  0
 22 45  1  0
 22 46  1  0
 23 47  1  0
 23 48  1  0
 24 49  1  0
 24 50  1  0
 25 51  1  0
 25 52  1  0
 26 53  1  0
 26 54  1  0
M  END
$$$$
