
     RDKit          3D

 41 43  0  0  0  0  0  0  0  0999 V2000
   -5.1275   -0.1296   -0.9202 C   0  0  0  0  0  0  0  0  0  0  0  0
   -3.8883    0.7637   -0.9628 C   0  0  0  0  0  0  0  0  0  0  0  0
   -3.5382    1.1417   -2.4016 C   0  0  0  0  0  0  0  0  0  0  0  0
   -2.7328    0.1127   -0.2841 C   0  0  0  0  0  0  0  0  0  0  0  0
   -1.9568    0.4472    0.7975 C   0  0  0  0  0  0  0  0  0  0  0  0
   -1.0149   -0.6060    0.9010 C   0  0  0  0  0  0  0  0  0  0  0  0
    0.1003   -0.7300    1.9025 C   0  0  0  0  0  0  0  0  0  0  0  0
    0.3625   -2.1559    2.4001 C   0  0  0  0  0  0  0  0  0  0  0  0
    1.4358   -2.6859    1.4542 C   0  0  0  0  0  0  0  0  0  0  0  0
    2.2779   -1.4544    1.1604 C   0  0  0  0  0  0  0  0  0  0  0  0
    1.3562   -0.3319    1.2727 N   0  0  0  0  0  0  0  0  0  0  0  0
    1.6716    1.0037    1.1097 C   0  0  0  0  0  0  0  0  0  0  0  0
    0.9449    1.8972    1.5367 O   0  0  0  0  0  0  0  0  0  0  0  0
    2.8941    1.2865    0.4089 C   0  0  0  0  0  0  0  0  0  0  0  0
    4.0439    1.8968    0.8709 C   0  0  0  0  0  0  0  0  0  0  0  0
    4.9150    1.9183   -0.2309 C   0  0  0  0  0  0  0  0  0  0  0  0
    4.3635    1.3869   -1.3234 N   0  0  0  0  0  0  0  0  0  0  0  0
    3.1148    1.0644   -0.9266 N   0  0  0  0  0  0  0  0  0  0  0  0
    2.1774    0.5622   -1.9057 C   0  0  0  0  0  0  0  0  0  0  0  0
   -1.2100   -1.5165   -0.0651 N   0  0  0  0  0  0  0  0  0  0  0  0
   -2.2903   -1.0660   -0.7998 O   0  0  0  0  0  0  0  0  0  0  0  0
   -5.9876    0.3790   -1.3686 H   0  0  0  0  0  0  0  0  0  0  0  0
   -4.9692   -1.0671   -1.4654 H   0  0  0  0  0  0  0  0  0  0  0  0
   -5.3900   -0.3868    0.1122 H   0  0  0  0  0  0  0  0  0  0  0  0
   -4.1253    1.6894   -0.4223 H   0  0  0  0  0  0  0  0  0  0  0  0
   -4.3707    1.6716   -2.8768 H   0  0  0  0  0  0  0  0  0  0  0  0
   -3.3119    0.2574   -3.0082 H   0  0  0  0  0  0  0  0  0  0  0  0
   -2.6611    1.7979   -2.4322 H   0  0  0  0  0  0  0  0  0  0  0  0
   -2.0344    1.3309    1.4142 H   0  0  0  0  0  0  0  0  0  0  0  0
   -0.1106   -0.0736    2.7560 H   0  0  0  0  0  0  0  0  0  0  0  0
    0.7787   -2.1155    3.4150 H   0  0  0  0  0  0  0  0  0  0  0  0
   -0.5283   -2.7907    2.4291 H   0  0  0  0  0  0  0  0  0  0  0  0
    2.0226   -3.4983    1.8921 H   0  0  0  0  0  0  0  0  0  0  0  0
    0.9793   -3.0615    0.5317 H   0  0  0  0  0  0  0  0  0  0  0  0
    3.0629   -1.3223    1.9135 H   0  0  0  0  0  0  0  0  0  0  0  0
    2.7406   -1.4987    0.1721 H   0  0  0  0  0  0  0  0  0  0  0  0
    4.2251    2.2612    1.8721 H   0  0  0  0  0  0  0  0  0  0  0  0
    5.9272    2.2983   -0.2849 H   0  0  0  0  0  0  0  0  0  0  0  0
    1.1558    0.6818   -1.5388 H   0  0  0  0  0  0  0  0  0  0  0  0
    2.4001   -0.4927   -2.0811 H   0  0  0  0  0  0  0  0  0  0  0  0
    2.2977    1.1346   -2.8294 H   0  0  0  0  0  0  0  0  0  0  0  0
  1  2  1  0
  2  3  1  0
  2  4  1  0
  4  5  2  0
  5  6  1  0
  6  7  1  0
  7  8  1  0
  8  9  1  0
  9 10  1  0
 10 11  1  0
 11 12  1  0
 12 13  2  0
 12 14  1  0
 14 15  2  0
 15 16  1  0
 16 17  2  0
 17 18  1  0
 18 19  1  0
  6 20  2  0
 20 21  1  0
 21  4  1  0
 11  7  1  0
 18 14  1  0
  1 22  1  0
  1 23  1  0
  1 24  1  0
  2 25  1  0
  3 26  1  0
  3 27  1  0
  3 28  1  0
  5 29  1  0
  7 30  1  0
  8 31  1  0
  8 32  1  0
  9 33  1  0
  9 34  1  0
 10 35  1  0
 10 36  1  0
 15 37  1  0
 16 38  1  0
 19 39  1  0
 19 40  1  0
 19 41  1  0
M  END
$$$$
