
     RDKit          3D

 42 44  0  0  0  0  0  0  0  0999 V2000
   -1.9286   -1.3947    1.1422 C   0  0  0  0  0  0  0  0  0  0  0  0
   -1.8530   -0.9362   -0.2042 O   0  0  0  0  0  0  0  0  0  0  0  0
   -2.4705    0.2599   -0.4618 C   0  0  0  0  0  0  0  0  0  0  0  0
   -3.5809    0.7338    0.2417 C   0  0  0  0  0  0  0  0  0  0  0  0
   -4.1644    1.9549   -0.1029 C   0  0  0  0  0  0  0  0  0  0  0  0
   -3.6425    2.7081   -1.1512 C   0  0  0  0  0  0  0  0  0  0  0  0
   -2.5398    2.2389   -1.8632 C   0  0  0  0  0  0  0  0  0  0  0  0
   -1.9509    1.0086   -1.5331 C   0  0  0  0  0  0  0  0  0  0  0  0
   -0.7415    0.5187   -2.3001 C   0  0  0  0  0  0  0  0  0  0  0  0
    0.5433    0.6560   -1.4914 C   0  0  0  0  0  0  0  0  0  0  0  0
    0.8858    1.7471   -1.0270 O   0  0  0  0  0  0  0  0  0  0  0  0
    1.3095   -0.4773   -1.3003 N   0  0  0  0  0  0  0  0  0  0  0  0
    1.2380   -1.7075   -2.0673 C   0  0  0  0  0  0  0  0  0  0  0  0
    2.6670   -2.2274   -2.0538 C   0  0  0  0  0  0  0  0  0  0  0  0
    3.1658   -1.8206   -0.6737 C   0  0  0  0  0  0  0  0  0  0  0  0
    2.4778   -0.4697   -0.4225 C   0  0  0  0  0  0  0  0  0  0  0  0
    2.0611   -0.2811    0.9950 C   0  0  0  0  0  0  0  0  0  0  0  0
    2.0610    0.8038    1.8394 C   0  0  0  0  0  0  0  0  0  0  0  0
    1.5011    0.3185    3.0403 C   0  0  0  0  0  0  0  0  0  0  0  0
    1.2416    1.0662    4.2900 C   0  0  0  0  0  0  0  0  0  0  0  0
    1.1970   -0.9816    2.9450 N   0  0  0  0  0  0  0  0  0  0  0  0
    1.5301   -1.3497    1.6527 O   0  0  0  0  0  0  0  0  0  0  0  0
   -1.2057   -2.2078    1.2585 H   0  0  0  0  0  0  0  0  0  0  0  0
   -2.9214   -1.8034    1.3545 H   0  0  0  0  0  0  0  0  0  0  0  0
   -1.6670   -0.6037    1.8530 H   0  0  0  0  0  0  0  0  0  0  0  0
   -4.0176    0.1673    1.0566 H   0  0  0  0  0  0  0  0  0  0  0  0
   -5.0257    2.3184    0.4511 H   0  0  0  0  0  0  0  0  0  0  0  0
   -4.0929    3.6614   -1.4129 H   0  0  0  0  0  0  0  0  0  0  0  0
   -2.1310    2.8436   -2.6697 H   0  0  0  0  0  0  0  0  0  0  0  0
   -0.9366   -0.5113   -2.6104 H   0  0  0  0  0  0  0  0  0  0  0  0
   -0.6064    1.0921   -3.2253 H   0  0  0  0  0  0  0  0  0  0  0  0
    0.5594   -2.3902   -1.5446 H   0  0  0  0  0  0  0  0  0  0  0  0
    0.8820   -1.5374   -3.0870 H   0  0  0  0  0  0  0  0  0  0  0  0
    2.7254   -3.3052   -2.2296 H   0  0  0  0  0  0  0  0  0  0  0  0
    3.2593   -1.7195   -2.8251 H   0  0  0  0  0  0  0  0  0  0  0  0
    2.8692   -2.5884    0.0503 H   0  0  0  0  0  0  0  0  0  0  0  0
    4.2565   -1.7393   -0.6309 H   0  0  0  0  0  0  0  0  0  0  0  0
    3.1328    0.3513   -0.7393 H   0  0  0  0  0  0  0  0  0  0  0  0
    2.3859    1.8063    1.6040 H   0  0  0  0  0  0  0  0  0  0  0  0
    2.1747    1.2245    4.8400 H   0  0  0  0  0  0  0  0  0  0  0  0
    0.5479    0.5281    4.9442 H   0  0  0  0  0  0  0  0  0  0  0  0
    0.8040    2.0443    4.0687 H   0  0  0  0  0  0  0  0  0  0  0  0
  1  2  1  0
  2  3  1  0
  3  4  2  0
  4  5  1  0
  5  6  2  0
  6  7  1  0
  7  8  2  0
  8  9  1  0
  9 10  1  0
 10 11  2  0
 10 12  1  0
 12 13  1  0
 13 14  1  0
 14 15  1  0
 15 16  1  0
 16 17  1  0
 17 18  2  0
 18 19  1  0
 19 20  1  0
 19 21  2  0
 21 22  1  0
  8  3  1  0
 16 12  1  0
 22 17  1  0
  1 23  1  0
  1 24  1  0
  1 25  1  0
  4 26  1  0
  5 27  1  0
  6 28  1  0
  7 29  1  0
  9 30  1  0
  9 31  1  0
 13 32  1  0
 13 33  1  0
 14 34  1  0
 14 35  1  0
 15 36  1  0
 15 37  1  0
 16 38  1  0
 18 39  1  0
 20 40  1  0
 20 41  1  0
 20 42  1  0
M  END
$$$$
