
     RDKit          3D

 50 54  0  0  0  0  0  0  0  0999 V2000
    0.4575   -1.5331    3.4713 O   0  0  0  0  0  0  0  0  0  0  0  0
    1.2638   -1.3318    2.5631 C   0  0  0  0  0  0  0  0  0  0  0  0
    2.4386   -2.0366    2.5505 N   0  0  0  0  0  0  0  0  0  0  0  0
    3.5069   -1.9854    1.6478 C   0  0  0  0  0  0  0  0  0  0  0  0
    4.3623   -3.0943    1.6066 C   0  0  0  0  0  0  0  0  0  0  0  0
    5.4585   -3.1172    0.7404 C   0  0  0  0  0  0  0  0  0  0  0  0
    5.7247   -2.0203   -0.0742 C   0  0  0  0  0  0  0  0  0  0  0  0
    4.8998   -0.8988   -0.0130 C   0  0  0  0  0  0  0  0  0  0  0  0
    3.7902   -0.8844    0.8398 C   0  0  0  0  0  0  0  0  0  0  0  0
    3.1309    0.3125    0.9392 O   0  0  0  0  0  0  0  0  0  0  0  0
    1.7892    0.2765    0.6824 C   0  0  0  0  0  0  0  0  0  0  0  0
    1.3431    1.1217   -0.3413 C   0  0  0  0  0  0  0  0  0  0  0  0
   -0.0222    1.2329   -0.6265 C   0  0  0  0  0  0  0  0  0  0  0  0
   -0.4288    2.0530   -1.6486 O   0  0  0  0  0  0  0  0  0  0  0  0
   -0.2315    3.4009   -1.4750 C   0  0  0  0  0  0  0  0  0  0  0  0
   -0.4701    4.0807   -0.2823 C   0  0  0  0  0  0  0  0  0  0  0  0
   -0.2587    5.4569   -0.2316 C   0  0  0  0  0  0  0  0  0  0  0  0
    0.1742    6.1023   -1.3802 C   0  0  0  0  0  0  0  0  0  0  0  0
    0.3979    5.4753   -2.5557 N   0  0  0  0  0  0  0  0  0  0  0  0
    0.1747    4.1396   -2.5782 C   0  0  0  0  0  0  0  0  0  0  0  0
   -0.9380    0.4801    0.1035 C   0  0  0  0  0  0  0  0  0  0  0  0
   -2.6742    0.5746   -0.2314 S   0  0  0  0  0  6  0  0  0  0  0  0
   -3.2402    1.4278    0.7913 O   0  0  0  0  0  0  0  0  0  0  0  0
   -2.8874    0.8339   -1.6389 O   0  0  0  0  0  0  0  0  0  0  0  0
   -3.2201   -1.0145    0.0470 N   0  0  0  0  0  0  0  0  0  0  0  0
   -2.7260   -2.0722   -0.8746 C   0  0  0  0  0  0  0  0  0  0  0  0
   -3.8198   -3.1279   -0.8434 C   0  0  0  0  0  0  0  0  0  0  0  0
   -5.0758   -2.2837   -0.7926 C   0  0  0  0  0  0  0  0  0  0  0  0
   -4.7006   -1.1577    0.1615 C   0  0  0  0  0  0  0  0  0  0  0  0
   -0.4935   -0.3359    1.1539 C   0  0  0  0  0  0  0  0  0  0  0  0
    0.8775   -0.4483    1.4424 C   0  0  0  0  0  0  0  0  0  0  0  0
    2.4529   -2.7631    3.2566 H   0  0  0  0  0  0  0  0  0  0  0  0
    4.1781   -3.9611    2.2369 H   0  0  0  0  0  0  0  0  0  0  0  0
    6.1080   -3.9888    0.7085 H   0  0  0  0  0  0  0  0  0  0  0  0
    6.5845   -2.0293   -0.7395 H   0  0  0  0  0  0  0  0  0  0  0  0
    5.1315   -0.0249   -0.6168 H   0  0  0  0  0  0  0  0  0  0  0  0
    2.0672    1.7005   -0.9109 H   0  0  0  0  0  0  0  0  0  0  0  0
   -0.8349    3.5658    0.6013 H   0  0  0  0  0  0  0  0  0  0  0  0
   -0.4378    6.0146    0.6811 H   0  0  0  0  0  0  0  0  0  0  0  0
    0.3503    7.1744   -1.3863 H   0  0  0  0  0  0  0  0  0  0  0  0
    0.3420    3.6607   -3.5384 H   0  0  0  0  0  0  0  0  0  0  0  0
   -2.6044   -1.6904   -1.8934 H   0  0  0  0  0  0  0  0  0  0  0  0
   -1.7740   -2.4816   -0.5273 H   0  0  0  0  0  0  0  0  0  0  0  0
   -3.7874   -3.7908   -1.7123 H   0  0  0  0  0  0  0  0  0  0  0  0
   -3.7363   -3.7391    0.0632 H   0  0  0  0  0  0  0  0  0  0  0  0
   -5.2943   -1.8755   -1.7868 H   0  0  0  0  0  0  0  0  0  0  0  0
   -5.9524   -2.8430   -0.4542 H   0  0  0  0  0  0  0  0  0  0  0  0
   -4.9352   -1.4278    1.1968 H   0  0  0  0  0  0  0  0  0  0  0  0
   -5.2440   -0.2419   -0.0883 H   0  0  0  0  0  0  0  0  0  0  0  0
   -1.2169   -0.8856    1.7566 H   0  0  0  0  0  0  0  0  0  0  0  0
  1  2  2  0
  2  3  1  0
  3  4  1  0
  4  5  2  0
  5  6  1  0
  6  7  2  0
  7  8  1  0
  8  9  2  0
  9 10  1  0
 10 11  1  0
 11 12  2  0
 12 13  1  0
 13 14  1  0
 14 15  1  0
 15 16  2  0
 16 17  1  0
 17 18  2  0
 18 19  1  0
 19 20  2  0
 13 21  2  0
 21 22  1  0
 22 23  2  0
 22 24  2  0
 22 25  1  0
 25 26  1  0
 26 27  1  0
 27 28  1  0
 28 29  1  0
 21 30  1  0
 30 31  2  0
 31  2  1  0
  9  4  1  0
 31 11  1  0
 20 15  1  0
 29 25  1  0
  3 32  1  0
  5 33  1  0
  6 34  1  0
  7 35  1  0
  8 36  1  0
 12 37  1  0
 16 38  1  0
 17 39  1  0
 18 40  1  0
 20 41  1  0
 26 42  1  0
 26 43  1  0
 27 44  1  0
 27 45  1  0
 28 46  1  0
 28 47  1  0
 29 48  1  0
 29 49  1  0
 30 50  1  0
M  END
$$$$
