
     RDKit          3D

 50 52  0  0  0  0  0  0  0  0999 V2000
   -6.4379   -0.5066   -1.2600 C   0  0  0  0  0  0  0  0  0  0  0  0
   -4.9693   -0.8283   -1.0863 C   0  0  0  0  0  0  0  0  0  0  0  0
   -4.5750   -1.9405   -1.4398 O   0  0  0  0  0  0  0  0  0  0  0  0
   -4.1637    0.1885   -0.5477 N   0  0  0  0  0  0  0  0  0  0  0  0
   -4.6468    1.5747   -0.5010 C   0  0  0  0  0  0  0  0  0  0  0  0
   -3.5511    2.5892   -0.7691 C   0  0  0  0  0  0  0  0  0  0  0  0
   -2.4729    2.4455    0.2825 C   0  0  0  0  0  0  0  0  0  0  0  0
   -2.0288    1.0120    0.4062 C   0  0  0  0  0  0  0  0  0  0  0  0
   -0.7640    0.7717    0.9792 C   0  0  0  0  0  0  0  0  0  0  0  0
   -0.2934   -0.5314    1.1382 C   0  0  0  0  0  0  0  0  0  0  0  0
    1.2933   -0.8177    1.9024 S   0  0  0  0  0  6  0  0  0  0  0  0
    1.3269   -2.1995    2.3298 O   0  0  0  0  0  0  0  0  0  0  0  0
    1.4788    0.2517    2.8633 O   0  0  0  0  0  0  0  0  0  0  0  0
    2.4153   -0.5934    0.6624 N   0  0  0  0  0  0  0  0  0  0  0  0
    2.6124    0.7827    0.1621 C   0  0  0  0  0  0  0  0  0  0  0  0
    4.0671    1.1440    0.2471 C   0  0  0  0  0  0  0  0  0  0  0  0
    4.8841    1.1389    1.3624 C   0  0  0  0  0  0  0  0  0  0  0  0
    6.2136    1.5524    1.0641 C   0  0  0  0  0  0  0  0  0  0  0  0
    6.3673    1.8693   -0.2666 C   0  0  0  0  0  0  0  0  0  0  0  0
    4.9147    1.6706   -1.1463 S   0  0  0  0  0  0  0  0  0  0  0  0
    2.8332   -1.6694   -0.2783 C   0  0  0  0  0  0  0  0  0  0  0  0
    3.8045   -2.6255    0.4098 C   0  0  0  0  0  0  0  0  0  0  0  0
    1.6735   -2.4068   -0.9276 C   0  0  0  0  0  0  0  0  0  0  0  0
   -1.1177   -1.6013    0.8086 C   0  0  0  0  0  0  0  0  0  0  0  0
   -2.3785   -1.3655    0.2458 C   0  0  0  0  0  0  0  0  0  0  0  0
   -2.8571   -0.0650    0.0157 C   0  0  0  0  0  0  0  0  0  0  0  0
   -6.5908    0.0504   -2.1877 H   0  0  0  0  0  0  0  0  0  0  0  0
   -6.8256    0.0511   -0.4036 H   0  0  0  0  0  0  0  0  0  0  0  0
   -7.0031   -1.4425   -1.3187 H   0  0  0  0  0  0  0  0  0  0  0  0
   -5.4268    1.7310   -1.2516 H   0  0  0  0  0  0  0  0  0  0  0  0
   -5.1023    1.7327    0.4844 H   0  0  0  0  0  0  0  0  0  0  0  0
   -3.9594    3.6056   -0.7514 H   0  0  0  0  0  0  0  0  0  0  0  0
   -3.1284    2.4232   -1.7684 H   0  0  0  0  0  0  0  0  0  0  0  0
   -1.6250    3.0857    0.0111 H   0  0  0  0  0  0  0  0  0  0  0  0
   -2.8469    2.7811    1.2576 H   0  0  0  0  0  0  0  0  0  0  0  0
   -0.1616    1.6125    1.3172 H   0  0  0  0  0  0  0  0  0  0  0  0
    2.2225    0.8594   -0.8598 H   0  0  0  0  0  0  0  0  0  0  0  0
    2.0629    1.5184    0.7567 H   0  0  0  0  0  0  0  0  0  0  0  0
    4.5381    0.8418    2.3468 H   0  0  0  0  0  0  0  0  0  0  0  0
    7.0153    1.6141    1.7899 H   0  0  0  0  0  0  0  0  0  0  0  0
    7.2636    2.2109   -0.7661 H   0  0  0  0  0  0  0  0  0  0  0  0
    3.3921   -1.2077   -1.1023 H   0  0  0  0  0  0  0  0  0  0  0  0
    4.2317   -3.3252   -0.3167 H   0  0  0  0  0  0  0  0  0  0  0  0
    4.6317   -2.0777    0.8736 H   0  0  0  0  0  0  0  0  0  0  0  0
    3.3208   -3.2196    1.1898 H   0  0  0  0  0  0  0  0  0  0  0  0
    2.0401   -3.0526   -1.7336 H   0  0  0  0  0  0  0  0  0  0  0  0
    0.9561   -1.7074   -1.3677 H   0  0  0  0  0  0  0  0  0  0  0  0
    1.1507   -3.0539   -0.2194 H   0  0  0  0  0  0  0  0  0  0  0  0
   -0.8061   -2.6273    0.9925 H   0  0  0  0  0  0  0  0  0  0  0  0
   -2.9778   -2.2443    0.0275 H   0  0  0  0  0  0  0  0  0  0  0  0
  1  2  1  0
  2  3  2  0
  2  4  1  0
  4  5  1  0
  5  6  1  0
  6  7  1  0
  7  8  1  0
  8  9  2  0
  9 10  1  0
 10 11  1  0
 11 12  2  0
 11 13  2  0
 11 14  1  0
 14 15  1  0
 15 16  1  0
 16 17  2  0
 17 18  1  0
 18 19  2  0
 19 20  1  0
 14 21  1  0
 21 22  1  0
 21 23  1  0
 10 24  2  0
 24 25  1  0
 25 26  2  0
 26  4  1  0
 26  8  1  0
 20 16  1  0
  1 27  1  0
  1 28  1  0
  1 29  1  0
  5 30  1  0
  5 31  1  0
  6 32  1  0
  6 33  1  0
  7 34  1  0
  7 35  1  0
  9 36  1  0
 15 37  1  0
 15 38  1  0
 17 39  1  0
 18 40  1  0
 19 41  1  0
 21 42  1  0
 22 43  1  0
 22 44  1  0
 22 45  1  0
 23 46  1  0
 23 47  1  0
 23 48  1  0
 24 49  1  0
 25 50  1  0
M  END
$$$$
