
     RDKit          3D

 52 53  0  0  0  0  0  0  0  0999 V2000
   -6.8184    1.8827    1.0494 C   0  0  0  0  0  0  0  0  0  0  0  0
   -5.3822    1.5308    0.6817 C   0  0  0  0  0  0  0  0  0  0  0  0
   -5.3358    0.2065    0.0287 N   0  0  0  0  0  0  0  0  0  0  0  0
   -5.6312    0.2568   -1.4203 C   0  0  0  0  0  0  0  0  0  0  0  0
   -6.0207   -1.1158   -1.9551 C   0  0  0  0  0  0  0  0  0  0  0  0
   -4.0363   -0.3444    0.2247 C   0  0  0  0  0  0  0  0  0  0  0  0
   -3.9540   -1.5909    0.8078 C   0  0  0  0  0  0  0  0  0  0  0  0
   -2.6907   -2.1012    0.9942 C   0  0  0  0  0  0  0  0  0  0  0  0
   -2.5028   -3.4500    1.6180 C   0  0  0  0  0  0  0  0  0  0  0  0
   -1.5845   -1.4268    0.6285 N   0  0  0  0  0  0  0  0  0  0  0  0
   -1.7434   -0.2189    0.0697 C   0  0  0  0  0  0  0  0  0  0  0  0
   -0.6588    0.5520   -0.3403 N   0  0  0  0  0  0  0  0  0  0  0  0
    0.7276    0.3847   -0.3003 C   0  0  0  0  0  0  0  0  0  0  0  0
    1.3655   -0.7347    0.2357 C   0  0  0  0  0  0  0  0  0  0  0  0
    2.7636   -0.8416    0.2432 C   0  0  0  0  0  0  0  0  0  0  0  0
    3.5642    0.1721   -0.2900 C   0  0  0  0  0  0  0  0  0  0  0  0
    4.9606   -0.0125   -0.2364 N   0  0  0  0  0  0  0  0  0  0  0  0
    5.9469    0.8381   -0.7113 C   0  0  0  0  0  0  0  0  0  0  0  0
    5.7646    1.9009   -1.2954 O   0  0  0  0  0  0  0  0  0  0  0  0
    7.3560    0.3057   -0.4274 C   0  0  0  0  0  0  0  0  0  0  0  0
    8.4130    1.1120   -1.1807 C   0  0  0  0  0  0  0  0  0  0  0  0
    7.6462    0.3297    1.0728 C   0  0  0  0  0  0  0  0  0  0  0  0
    2.9412    1.2933   -0.8294 C   0  0  0  0  0  0  0  0  0  0  0  0
    1.5424    1.3942   -0.8336 C   0  0  0  0  0  0  0  0  0  0  0  0
   -2.9429    0.3454   -0.1435 N   0  0  0  0  0  0  0  0  0  0  0  0
   -6.8477    2.8364    1.5853 H   0  0  0  0  0  0  0  0  0  0  0  0
   -7.4539    1.9759    0.1641 H   0  0  0  0  0  0  0  0  0  0  0  0
   -7.2545    1.1141    1.6962 H   0  0  0  0  0  0  0  0  0  0  0  0
   -4.8044    1.5271    1.6162 H   0  0  0  0  0  0  0  0  0  0  0  0
   -4.9588    2.3092    0.0337 H   0  0  0  0  0  0  0  0  0  0  0  0
   -6.4845    0.9231   -1.5934 H   0  0  0  0  0  0  0  0  0  0  0  0
   -4.7964    0.6721   -2.0000 H   0  0  0  0  0  0  0  0  0  0  0  0
   -6.8382   -1.5482   -1.3687 H   0  0  0  0  0  0  0  0  0  0  0  0
   -5.1787   -1.8141   -1.9289 H   0  0  0  0  0  0  0  0  0  0  0  0
   -6.3520   -1.0347   -2.9954 H   0  0  0  0  0  0  0  0  0  0  0  0
   -4.8449   -2.1293    1.1020 H   0  0  0  0  0  0  0  0  0  0  0  0
   -1.4393   -3.6852    1.7259 H   0  0  0  0  0  0  0  0  0  0  0  0
   -2.9587   -3.4751    2.6125 H   0  0  0  0  0  0  0  0  0  0  0  0
   -2.9613   -4.2228    0.9935 H   0  0  0  0  0  0  0  0  0  0  0  0
   -1.0061    1.4146   -0.7323 H   0  0  0  0  0  0  0  0  0  0  0  0
    0.7917   -1.5506    0.6636 H   0  0  0  0  0  0  0  0  0  0  0  0
    3.2058   -1.7347    0.6760 H   0  0  0  0  0  0  0  0  0  0  0  0
    5.2711   -0.8771    0.1874 H   0  0  0  0  0  0  0  0  0  0  0  0
    7.4011   -0.7301   -0.7872 H   0  0  0  0  0  0  0  0  0  0  0  0
    9.4114    0.6922   -1.0195 H   0  0  0  0  0  0  0  0  0  0  0  0
    8.2146    1.1038   -2.2581 H   0  0  0  0  0  0  0  0  0  0  0  0
    8.4278    2.1578   -0.8546 H   0  0  0  0  0  0  0  0  0  0  0  0
    7.5454    1.3430    1.4769 H   0  0  0  0  0  0  0  0  0  0  0  0
    8.6624   -0.0220    1.2796 H   0  0  0  0  0  0  0  0  0  0  0  0
    6.9543   -0.3144    1.6257 H   0  0  0  0  0  0  0  0  0  0  0  0
    3.5084    2.1143   -1.2561 H   0  0  0  0  0  0  0  0  0  0  0  0
    1.0957    2.2869   -1.2655 H   0  0  0  0  0  0  0  0  0  0  0  0
  1  2  1  0
  2  3  1  0
  3  4  1  0
  4  5  1  0
  3  6  1  0
  6  7  2  0
  7  8  1  0
  8  9  1  0
  8 10  2  0
 10 11  1  0
 11 12  1  0
 12 13  1  0
 13 14  2  0
 14 15  1  0
 15 16  2  0
 16 17  1  0
 17 18  1  0
 18 19  2  0
 18 20  1  0
 20 21  1  0
 20 22  1  0
 16 23  1  0
 23 24  2  0
 11 25  2  0
 25  6  1  0
 24 13  1  0
  1 26  1  0
  1 27  1  0
  1 28  1  0
  2 29  1  0
  2 30  1  0
  4 31  1  0
  4 32  1  0
  5 33  1  0
  5 34  1  0
  5 35  1  0
  7 36  1  0
  9 37  1  0
  9 38  1  0
  9 39  1  0
 12 40  1  0
 14 41  1  0
 15 42  1  0
 17 43  1  0
 20 44  1  0
 21 45  1  0
 21 46  1  0
 21 47  1  0
 22 48  1  0
 22 49  1  0
 22 50  1  0
 23 51  1  0
 24 52  1  0
M  END
$$$$
