
     RDKit          3D

 36 38  0  0  0  0  0  0  0  0999 V2000
   -2.4305   -0.0829   -2.4172 C   0  0  0  0  0  0  0  0  0  0  0  0
   -2.9772   -0.2795   -1.0326 C   0  0  0  0  0  0  0  0  0  0  0  0
   -4.0842   -1.1245   -0.8523 C   0  0  0  0  0  0  0  0  0  0  0  0
   -4.6429   -1.3146    0.4143 C   0  0  0  0  0  0  0  0  0  0  0  0
   -4.1048   -0.6649    1.5223 C   0  0  0  0  0  0  0  0  0  0  0  0
   -2.9975    0.1659    1.3672 C   0  0  0  0  0  0  0  0  0  0  0  0
   -2.4252    0.3432    0.1007 C   0  0  0  0  0  0  0  0  0  0  0  0
   -1.2282    1.2116    0.0334 C   0  0  0  0  0  0  0  0  0  0  0  0
   -1.2958    2.3743    0.4260 O   0  0  0  0  0  0  0  0  0  0  0  0
    0.0572    0.6122   -0.4932 C   0  0  0  0  0  0  0  0  0  0  0  0
    1.2359    1.0260    0.3918 C   0  0  0  0  0  0  0  0  0  0  0  0
    1.4168    2.4302    0.4179 O   0  0  0  0  0  0  0  0  0  0  0  0
    1.1184    0.3510    1.8063 C   0  0  0  0  0  0  0  0  0  0  0  0
    0.2371    0.5168    2.6349 O   0  0  0  0  0  0  0  0  0  0  0  0
    2.2041   -0.5040    1.9571 N   0  0  0  0  0  0  0  0  0  0  0  0
    3.0352   -0.4661    0.8508 C   0  0  0  0  0  0  0  0  0  0  0  0
    4.2078   -1.1693    0.6670 C   0  0  0  0  0  0  0  0  0  0  0  0
    4.8953   -0.9704   -0.5337 C   0  0  0  0  0  0  0  0  0  0  0  0
    4.3973   -0.0793   -1.5014 C   0  0  0  0  0  0  0  0  0  0  0  0
    5.3577    0.1710   -3.1123 Br  0  0  0  0  0  0  0  0  0  0  0  0
    3.2081    0.6247   -1.2957 C   0  0  0  0  0  0  0  0  0  0  0  0
    2.5282    0.4140   -0.1057 C   0  0  0  0  0  0  0  0  0  0  0  0
   -1.5564   -0.7218   -2.5741 H   0  0  0  0  0  0  0  0  0  0  0  0
   -2.1553    0.9632   -2.5850 H   0  0  0  0  0  0  0  0  0  0  0  0
   -3.1783   -0.3366   -3.1766 H   0  0  0  0  0  0  0  0  0  0  0  0
   -4.5319   -1.6343   -1.7037 H   0  0  0  0  0  0  0  0  0  0  0  0
   -5.5062   -1.9650    0.5342 H   0  0  0  0  0  0  0  0  0  0  0  0
   -4.5446   -0.8056    2.5065 H   0  0  0  0  0  0  0  0  0  0  0  0
   -2.5729    0.6677    2.2359 H   0  0  0  0  0  0  0  0  0  0  0  0
    0.1884    0.9851   -1.5160 H   0  0  0  0  0  0  0  0  0  0  0  0
   -0.0302   -0.4802   -0.5325 H   0  0  0  0  0  0  0  0  0  0  0  0
    0.5652    2.8089    0.7280 H   0  0  0  0  0  0  0  0  0  0  0  0
    2.3620   -1.0405    2.7972 H   0  0  0  0  0  0  0  0  0  0  0  0
    4.5915   -1.8482    1.4201 H   0  0  0  0  0  0  0  0  0  0  0  0
    5.8249   -1.5066   -0.7109 H   0  0  0  0  0  0  0  0  0  0  0  0
    2.8309    1.3283   -2.0312 H   0  0  0  0  0  0  0  0  0  0  0  0
  1  2  1  0
  2  3  2  0
  3  4  1  0
  4  5  2  0
  5  6  1  0
  6  7  2  0
  7  8  1  0
  8  9  2  0
  8 10  1  0
 10 11  1  0
 11 12  1  0
 11 13  1  0
 13 14  2  0
 13 15  1  0
 15 16  1  0
 16 17  2  0
 17 18  1  0
 18 19  2  0
 19 20  1  0
 19 21  1  0
 21 22  2  0
  7  2  1  0
 22 11  1  0
 22 16  1  0
  1 23  1  0
  1 24  1  0
  1 25  1  0
  3 26  1  0
  4 27  1  0
  5 28  1  0
  6 29  1  0
 10 30  1  0
 10 31  1  0
 12 32  1  0
 15 33  1  0
 17 34  1  0
 18 35  1  0
 21 36  1  0
M  END
$$$$
