
     RDKit          3D

 56 60  0  0  0  0  0  0  0  0999 V2000
    8.1257   -3.9748   -0.6410 C   0  0  0  0  0  0  0  0  0  0  0  0
    8.2062   -2.9217    0.3105 O   0  0  0  0  0  0  0  0  0  0  0  0
    7.2615   -1.9337    0.2249 C   0  0  0  0  0  0  0  0  0  0  0  0
    6.2139   -1.8828   -0.6925 C   0  0  0  0  0  0  0  0  0  0  0  0
    5.2986   -0.8207   -0.6912 C   0  0  0  0  0  0  0  0  0  0  0  0
    5.4636    0.1966    0.2611 C   0  0  0  0  0  0  0  0  0  0  0  0
    6.5056    0.1697    1.1912 C   0  0  0  0  0  0  0  0  0  0  0  0
    6.3860    1.3350    1.9959 C   0  0  0  0  0  0  0  0  0  0  0  0
    5.2909    2.0399    1.5528 C   0  0  0  0  0  0  0  0  0  0  0  0
    4.7375    1.3441    0.5088 N   0  0  0  0  0  0  0  0  0  0  0  0
    3.5439    1.7636   -0.2097 C   0  0  0  0  0  0  0  0  0  0  0  0
    2.2913    1.1281    0.3769 C   0  0  0  0  0  0  0  0  0  0  0  0
    1.0544    1.5560   -0.3841 C   0  0  0  0  0  0  0  0  0  0  0  0
    1.1171    2.2964   -1.3583 O   0  0  0  0  0  0  0  0  0  0  0  0
   -0.0946    1.0026    0.1575 N   0  0  0  0  0  0  0  0  0  0  0  0
   -1.4230    1.1874   -0.2772 C   0  0  0  0  0  0  0  0  0  0  0  0
   -1.7934    2.0108   -1.3338 C   0  0  0  0  0  0  0  0  0  0  0  0
   -3.1409    2.1420   -1.6903 C   0  0  0  0  0  0  0  0  0  0  0  0
   -4.1510    1.4361   -1.0183 C   0  0  0  0  0  0  0  0  0  0  0  0
   -3.7889    0.6270    0.0693 C   0  0  0  0  0  0  0  0  0  0  0  0
   -2.4264    0.5104    0.4224 C   0  0  0  0  0  0  0  0  0  0  0  0
   -4.7437   -0.0064    1.0197 C   0  0  0  0  0  0  0  0  0  0  0  0
   -4.3987   -0.1664    2.1895 O   0  0  0  0  0  0  0  0  0  0  0  0
   -5.9839   -0.3798    0.5747 N   0  0  0  0  0  0  0  0  0  0  0  0
   -6.9798   -0.9340    1.4727 C   0  0  0  0  0  0  0  0  0  0  0  0
   -8.2267   -1.0540    0.6140 C   0  0  0  0  0  0  0  0  0  0  0  0
   -7.6524   -1.3750   -0.7621 C   0  0  0  0  0  0  0  0  0  0  0  0
   -6.3661   -0.5453   -0.8152 C   0  0  1  0  0  0  0  0  0  0  0  0
   -6.5453    0.8290   -1.4509 C   0  0  0  0  0  0  0  0  0  0  0  0
   -7.5774    1.1784   -2.0254 O   0  0  0  0  0  0  0  0  0  0  0  0
   -5.4511    1.6504   -1.5109 N   0  0  0  0  0  0  0  0  0  0  0  0
    7.4106   -0.9097    1.1689 C   0  0  0  0  0  0  0  0  0  0  0  0
    8.9512   -4.6660   -0.4451 H   0  0  0  0  0  0  0  0  0  0  0  0
    7.1907   -4.5342   -0.5321 H   0  0  0  0  0  0  0  0  0  0  0  0
    8.2444   -3.5958   -1.6615 H   0  0  0  0  0  0  0  0  0  0  0  0
    6.0744   -2.6608   -1.4363 H   0  0  0  0  0  0  0  0  0  0  0  0
    4.4914   -0.7959   -1.4162 H   0  0  0  0  0  0  0  0  0  0  0  0
    7.0360    1.6248    2.8110 H   0  0  0  0  0  0  0  0  0  0  0  0
    4.8665    2.9744    1.8964 H   0  0  0  0  0  0  0  0  0  0  0  0
    3.4930    2.8580   -0.1557 H   0  0  0  0  0  0  0  0  0  0  0  0
    3.6776    1.5015   -1.2653 H   0  0  0  0  0  0  0  0  0  0  0  0
    2.3615    0.0344    0.3369 H   0  0  0  0  0  0  0  0  0  0  0  0
    2.1752    1.4203    1.4277 H   0  0  0  0  0  0  0  0  0  0  0  0
    0.0276    0.3963    0.9613 H   0  0  0  0  0  0  0  0  0  0  0  0
   -1.0625    2.5754   -1.9050 H   0  0  0  0  0  0  0  0  0  0  0  0
   -3.3820    2.7955   -2.5273 H   0  0  0  0  0  0  0  0  0  0  0  0
   -2.1622   -0.1061    1.2812 H   0  0  0  0  0  0  0  0  0  0  0  0
   -6.6278   -1.9163    1.8075 H   0  0  0  0  0  0  0  0  0  0  0  0
   -7.1182   -0.2892    2.3456 H   0  0  0  0  0  0  0  0  0  0  0  0
   -8.7581   -0.0954    0.5811 H   0  0  0  0  0  0  0  0  0  0  0  0
   -8.9177   -1.8191    0.9780 H   0  0  0  0  0  0  0  0  0  0  0  0
   -8.3602   -1.1672   -1.5693 H   0  0  0  0  0  0  0  0  0  0  0  0
   -7.4006   -2.4423   -0.8043 H   0  0  0  0  0  0  0  0  0  0  0  0
   -5.5867   -1.0830   -1.3680 H   0  0  0  0  0  0  0  0  0  0  0  0
   -5.6045    2.4399   -2.1286 H   0  0  0  0  0  0  0  0  0  0  0  0
    8.2279   -0.9485    1.8833 H   0  0  0  0  0  0  0  0  0  0  0  0
  1  2  1  0
  2  3  1  0
  3  4  2  0
  4  5  1  0
  5  6  2  0
  6  7  1  0
  7  8  1  0
  8  9  2  0
  9 10  1  0
 10 11  1  0
 11 12  1  0
 12 13  1  0
 13 14  2  0
 13 15  1  0
 15 16  1  0
 16 17  2  0
 17 18  1  0
 18 19  2  0
 19 20  1  0
 20 21  2  0
 20 22  1  0
 22 23  2  0
 22 24  1  0
 24 25  1  0
 25 26  1  0
 26 27  1  0
 27 28  1  0
 28 29  1  0
 29 30  2  0
 29 31  1  0
  7 32  2  0
 32  3  1  0
 10  6  1  0
 21 16  1  0
 28 24  1  0
 31 19  1  0
  1 33  1  0
  1 34  1  0
  1 35  1  0
  4 36  1  0
  5 37  1  0
  8 38  1  0
  9 39  1  0
 11 40  1  0
 11 41  1  0
 12 42  1  0
 12 43  1  0
 15 44  1  0
 17 45  1  0
 18 46  1  0
 21 47  1  0
 25 48  1  0
 25 49  1  0
 26 50  1  0
 26 51  1  0
 27 52  1  0
 27 53  1  0
 28 54  1  6
 31 55  1  0
 32 56  1  0
M  END
$$$$
