
     RDKit          3D

190200  0  0  0  0  0  0  0  0999 V2000
    2.5511   -7.3251    2.0054 C   0  0  0  0  0  0  0  0  0  0  0  0
    1.2458   -6.9556    1.8340 C   0  0  0  0  0  0  0  0  0  0  0  0
    0.6970   -5.8392    1.1888 C   0  0  0  0  0  0  0  0  0  0  0  0
   -0.6208   -5.7342    0.8942 C   0  0  0  0  0  0  0  0  0  0  0  0
   -1.6193   -6.7534    1.1659 C   0  0  0  0  0  0  0  0  0  0  0  0
   -0.8513   -4.4036    0.2688 C   0  0  0  0  0  0  0  0  0  0  0  0
   -1.9731   -3.7354    0.0200 C   0  0  0  0  0  0  0  0  0  0  0  0
   -2.1581   -2.3924   -0.0217 C   0  0  0  0  0  0  0  0  0  0  0  0
   -1.2684   -1.3101   -0.2445 N   0  0  0  0  0  0  0  0  0  0  0  0
   -2.0213   -0.1384   -0.1242 C   0  0  0  0  0  0  0  0  0  0  0  0
   -1.7760    1.0464    0.5259 C   0  0  0  0  0  0  0  0  0  0  0  0
   -0.5976    1.5484    0.8948 C   0  0  0  0  0  0  0  0  0  0  0  0
    0.4154    0.8162    1.3240 N   0  0  0  0  0  0  0  0  0  0  0  0
    1.5615    1.5001    1.3954 C   0  0  0  0  0  0  0  0  0  0  0  0
    2.7706    0.9722    1.4714 C   0  0  0  0  0  0  0  0  0  0  0  0
    3.0468   -0.5160    1.1620 C   0  0  0  0  0  0  0  0  0  0  0  0
    2.2182   -1.5684    1.4291 N   0  0  0  0  0  0  0  0  0  0  0  0
    2.9437   -2.6036    0.9362 C   0  0  0  0  0  0  0  0  0  0  0  0
    2.5100   -4.0685    1.0463 C   0  0  0  0  0  0  0  0  0  0  0  0
    1.3202   -4.5512    0.7067 C   0  0  0  0  0  0  0  0  0  0  0  0
    0.3765   -3.9032    0.0372 N   0  0  0  0  0  0  0  0  0  0  0  0
    4.1206   -2.2555    0.3902 C   0  0  0  0  0  0  0  0  0  0  0  0
    5.1679   -3.0873   -0.2157 C   0  0  0  0  0  0  0  0  0  0  0  0
    4.2078   -0.8759    0.5705 C   0  0  0  0  0  0  0  0  0  0  0  0
    5.3457   -0.0317    0.0649 C   0  0  0  0  0  0  0  0  0  0  0  0
    5.3336    0.1676   -1.4385 C   0  0  0  0  0  0  0  0  0  0  0  0
    4.0442    0.5527   -2.1235 C   0  0  0  0  0  0  0  0  0  0  0  0
    2.8907    0.2844   -1.8253 O   0  0  0  0  0  0  0  0  0  0  0  0
    4.2795    1.3515   -3.2406 O   0  0  0  0  0  0  0  0  0  0  0  0
    1.1750    2.9297    1.2364 C   0  0  0  0  0  0  0  0  0  0  0  0
    2.0397    4.0674    1.3591 C   0  0  0  0  0  0  0  0  0  0  0  0
    3.0554    4.1255    0.1985 C   0  0  0  0  0  0  0  0  0  0  0  0
    3.8651    5.3943    0.2505 C   0  0  0  0  0  0  0  0  0  0  0  0
    3.4830    6.3637    0.9113 O   0  0  0  0  0  0  0  0  0  0  0  0
    5.0623    5.3828   -0.4190 O   0  0  0  0  0  0  0  0  0  0  0  0
    5.9644    6.5308   -0.3719 C   0  0  0  0  0  0  0  0  0  0  0  0
   -0.1336    2.9475    0.9676 C   0  0  0  0  0  0  0  0  0  0  0  0
   -1.0016    4.1509    0.7426 C   0  0  0  0  0  0  0  0  0  0  0  0
   -3.3072   -0.5105   -0.8032 C   0  0  1  0  0  0  0  0  0  0  0  0
   -2.9898   -0.9527   -2.2820 C   0  0  0  0  0  0  0  0  0  0  0  0
   -3.4712   -1.7480    0.0146 C   0  0  0  0  0  0  0  0  0  0  0  0
   -4.6616   -1.9441    0.7193 C   0  0  0  0  0  0  0  0  0  0  0  0
   -5.7646   -1.0158    0.6385 C   0  0  0  0  0  0  0  0  0  0  0  0
   -5.7275    0.1245   -0.1574 C   0  0  0  0  0  0  0  0  0  0  0  0
   -6.9488    0.9220   -0.2391 C   0  0  0  0  0  0  0  0  0  0  0  0
   -7.9517    0.6062    0.3474 O   0  0  0  0  0  0  0  0  0  0  0  0
   -6.8827    2.0473   -1.0814 O   0  0  0  0  0  0  0  0  0  0  0  0
   -8.0489    2.9402   -1.1563 C   0  0  0  0  0  0  0  0  0  0  0  0
   -4.5186    0.4126   -0.9266 C   0  0  1  0  0  0  0  0  0  0  0  0
   -4.0907    1.8833   -0.9175 C   0  0  0  0  0  0  0  0  0  0  0  0
   -3.2514    2.2104   -1.7282 O   0  0  0  0  0  0  0  0  0  0  0  0
   -4.7435    2.7388   -0.1060 O   0  0  0  0  0  0  0  0  0  0  0  0
   -4.5004    4.0613   -0.0532 C   0  0  0  0  0  0  0  0  0  0  0  0
    3.1371   -6.5433   -0.4787 C   0  0  0  0  0  0  0  0  0  0  0  0
    1.8060   -6.4160   -0.7770 C   0  0  0  0  0  0  0  0  0  0  0  0
    0.9813   -5.2419   -0.6711 C   0  0  0  0  0  0  0  0  0  0  0  0
   -0.3547   -5.2455   -0.9790 C   0  0  0  0  0  0  0  0  0  0  0  0
   -1.0684   -6.4132   -1.5685 C   0  0  0  0  0  0  0  0  0  0  0  0
   -0.9184   -3.8932   -0.8843 C   0  0  0  0  0  0  0  0  0  0  0  0
   -2.1821   -3.4141   -0.9818 C   0  0  0  0  0  0  0  0  0  0  0  0
   -2.5013   -2.1051   -1.0002 C   0  0  0  0  0  0  0  0  0  0  0  0
   -1.8423   -1.0196   -1.5701 N   0  0  0  0  0  0  0  0  0  0  0  0
   -2.5121    0.1663   -1.2870 C   0  0  0  0  0  0  0  0  0  0  0  0
   -2.1126    1.4432   -1.4276 C   0  0  0  0  0  0  0  0  0  0  0  0
   -0.8529    1.9133   -1.4504 C   0  0  0  0  0  0  0  0  0  0  0  0
    0.2790    1.1941   -1.2269 N   0  0  0  0  0  0  0  0  0  0  0  0
    1.2810    2.0177   -0.8691 C   0  0  0  0  0  0  0  0  0  0  0  0
    2.2802    1.7168   -0.0638 C   0  0  0  0  0  0  0  0  0  0  0  0
    2.5662    0.2433    0.3901 C   0  0  0  0  0  0  0  0  0  0  0  0
    2.1776   -0.8805   -0.3034 N   0  0  0  0  0  0  0  0  0  0  0  0
    2.5534   -1.8662    0.5644 C   0  0  0  0  0  0  0  0  0  0  0  0
    2.3157   -3.3936    0.3920 C   0  0  0  0  0  0  0  0  0  0  0  0
    1.2828   -3.8337   -0.2990 C   0  0  0  0  0  0  0  0  0  0  0  0
    0.1580   -3.1516   -0.5618 N   0  0  0  0  0  0  0  0  0  0  0  0
    3.2371   -1.4002    1.6340 C   0  0  0  0  0  0  0  0  0  0  0  0
    3.7418   -2.2090    2.8302 C   0  0  0  0  0  0  0  0  0  0  0  0
    3.3126   -0.0172    1.4783 C   0  0  0  0  0  0  0  0  0  0  0  0
    3.9381    0.9132    2.4544 C   0  0  0  0  0  0  0  0  0  0  0  0
    5.2364    1.5690    1.8917 C   0  0  0  0  0  0  0  0  0  0  0  0
    6.3224    0.7342    1.2528 C   0  0  0  0  0  0  0  0  0  0  0  0
    6.1882   -0.3231    0.5963 O   0  0  0  0  0  0  0  0  0  0  0  0
    7.5673    1.1466    1.6306 O   0  0  0  0  0  0  0  0  0  0  0  0
    8.7142    0.3732    1.2241 C   0  0  0  0  0  0  0  0  0  0  0  0
    0.9032    3.3442   -1.3732 C   0  0  0  0  0  0  0  0  0  0  0  0
    1.7598    4.5644   -1.4589 C   0  0  0  0  0  0  0  0  0  0  0  0
    2.8924    4.3769   -2.4604 C   0  0  0  0  0  0  0  0  0  0  0  0
    3.1453    5.7445   -3.0521 C   0  0  0  0  0  0  0  0  0  0  0  0
    3.2185    5.9805   -4.2571 O   0  0  0  0  0  0  0  0  0  0  0  0
    3.5133    6.6947   -2.1053 O   0  0  0  0  0  0  0  0  0  0  0  0
   -0.4012    3.3091   -1.7205 C   0  0  0  0  0  0  0  0  0  0  0  0
   -1.1648    4.4688   -2.2824 C   0  0  0  0  0  0  0  0  0  0  0  0
   -3.9128   -0.2181   -0.8345 C   0  0  1  0  0  0  0  0  0  0  0  0
   -4.7982   -0.3038   -2.0614 C   0  0  0  0  0  0  0  0  0  0  0  0
   -3.7371   -1.5891   -0.3644 C   0  0  0  0  0  0  0  0  0  0  0  0
   -4.6463   -2.1642    0.4601 C   0  0  0  0  0  0  0  0  0  0  0  0
   -5.7225   -1.3715    1.0379 C   0  0  0  0  0  0  0  0  0  0  0  0
   -5.7394   -0.0328    0.8431 C   0  0  0  0  0  0  0  0  0  0  0  0
   -6.8077    0.8146    1.4972 C   0  0  0  0  0  0  0  0  0  0  0  0
   -6.6861    2.0471    1.5219 O   0  0  0  0  0  0  0  0  0  0  0  0
   -7.9142    0.1112    1.9888 O   0  0  0  0  0  0  0  0  0  0  0  0
   -8.9891    1.0014    2.3964 C   0  0  0  0  0  0  0  0  0  0  0  0
   -4.5764    0.6977    0.1908 C   0  0  1  0  0  0  0  0  0  0  0  0
   -3.7386    1.1442    1.3675 C   0  0  0  0  0  0  0  0  0  0  0  0
   -4.2084    1.1237    2.4845 O   0  0  0  0  0  0  0  0  0  0  0  0
   -2.5165    1.7596    1.1926 O   0  0  0  0  0  0  0  0  0  0  0  0
   -1.8997    2.4215    2.2977 C   0  0  0  0  0  0  0  0  0  0  0  0
    2.8583   -8.1917    2.5803 H   0  0  0  0  0  0  0  0  0  0  0  0
    3.3789   -6.7132    1.6036 H   0  0  0  0  0  0  0  0  0  0  0  0
    0.6025   -7.6235    2.3778 H   0  0  0  0  0  0  0  0  0  0  0  0
   -2.5504   -6.5493    0.6412 H   0  0  0  0  0  0  0  0  0  0  0  0
   -1.8449   -6.8714    2.2439 H   0  0  0  0  0  0  0  0  0  0  0  0
   -1.2532   -7.7373    0.8268 H   0  0  0  0  0  0  0  0  0  0  0  0
   -2.8282   -4.3940   -0.1074 H   0  0  0  0  0  0  0  0  0  0  0  0
   -0.2365   -1.3387   -0.1231 H   0  0  0  0  0  0  0  0  0  0  0  0
   -2.6354    1.6860    0.8566 H   0  0  0  0  0  0  0  0  0  0  0  0
    3.6011    1.5768    1.6588 H   0  0  0  0  0  0  0  0  0  0  0  0
    1.2657   -1.5504    1.8443 H   0  0  0  0  0  0  0  0  0  0  0  0
    3.2670   -4.6651    1.4553 H   0  0  0  0  0  0  0  0  0  0  0  0
    5.1092   -4.1228    0.1502 H   0  0  0  0  0  0  0  0  0  0  0  0
    6.1674   -2.6934    0.1241 H   0  0  0  0  0  0  0  0  0  0  0  0
    5.1403   -3.0701   -1.3369 H   0  0  0  0  0  0  0  0  0  0  0  0
    5.3199    0.8987    0.6168 H   0  0  0  0  0  0  0  0  0  0  0  0
    6.2956   -0.5346    0.3624 H   0  0  0  0  0  0  0  0  0  0  0  0
    6.1130    0.9468   -1.6522 H   0  0  0  0  0  0  0  0  0  0  0  0
    5.6929   -0.7136   -1.9230 H   0  0  0  0  0  0  0  0  0  0  0  0
    3.4703    1.6638   -3.7684 H   0  0  0  0  0  0  0  0  0  0  0  0
    2.6416    4.0308    2.3353 H   0  0  0  0  0  0  0  0  0  0  0  0
    1.4994    5.0498    1.3916 H   0  0  0  0  0  0  0  0  0  0  0  0
    3.7162    3.2625    0.2766 H   0  0  0  0  0  0  0  0  0  0  0  0
    2.5485    4.0527   -0.7665 H   0  0  0  0  0  0  0  0  0  0  0  0
    6.8677    6.2777    0.2012 H   0  0  0  0  0  0  0  0  0  0  0  0
    5.5302    7.4281    0.0876 H   0  0  0  0  0  0  0  0  0  0  0  0
    6.3228    6.7869   -1.3791 H   0  0  0  0  0  0  0  0  0  0  0  0
   -1.8025    4.2324    1.4712 H   0  0  0  0  0  0  0  0  0  0  0  0
   -0.4252    5.0910    0.6534 H   0  0  0  0  0  0  0  0  0  0  0  0
   -1.4472    3.9955   -0.2751 H   0  0  0  0  0  0  0  0  0  0  0  0
   -2.4125   -0.1349   -2.7496 H   0  0  0  0  0  0  0  0  0  0  0  0
   -2.3121   -1.8116   -2.1983 H   0  0  0  0  0  0  0  0  0  0  0  0
   -3.8806   -1.2243   -2.7708 H   0  0  0  0  0  0  0  0  0  0  0  0
   -4.7085   -2.7674    1.3404 H   0  0  0  0  0  0  0  0  0  0  0  0
   -6.6582   -1.2340    1.1746 H   0  0  0  0  0  0  0  0  0  0  0  0
   -8.9932    2.4493   -0.8192 H   0  0  0  0  0  0  0  0  0  0  0  0
   -7.7986    3.8539   -0.6194 H   0  0  0  0  0  0  0  0  0  0  0  0
   -8.1238    3.1824   -2.2357 H   0  0  0  0  0  0  0  0  0  0  0  0
   -4.8969    0.2820   -1.9703 H   0  0  0  0  0  0  0  0  0  0  0  0
   -4.2312    4.3918    0.9940 H   0  0  0  0  0  0  0  0  0  0  0  0
   -3.7454    4.3605   -0.8105 H   0  0  0  0  0  0  0  0  0  0  0  0
   -5.4359    4.5830   -0.3565 H   0  0  0  0  0  0  0  0  0  0  0  0
    3.7325   -5.6882   -0.2809 H   0  0  0  0  0  0  0  0  0  0  0  0
    3.5724   -7.4760   -0.6383 H   0  0  0  0  0  0  0  0  0  0  0  0
    1.3117   -7.3402   -1.0330 H   0  0  0  0  0  0  0  0  0  0  0  0
   -0.8951   -6.5802   -2.6258 H   0  0  0  0  0  0  0  0  0  0  0  0
   -2.1489   -6.3338   -1.4222 H   0  0  0  0  0  0  0  0  0  0  0  0
   -0.8097   -7.3362   -1.0224 H   0  0  0  0  0  0  0  0  0  0  0  0
   -2.9301   -4.1727   -0.8900 H   0  0  0  0  0  0  0  0  0  0  0  0
   -0.9050   -1.0746   -2.1342 H   0  0  0  0  0  0  0  0  0  0  0  0
   -2.8321    2.2450   -1.3869 H   0  0  0  0  0  0  0  0  0  0  0  0
    2.8634    2.4763    0.4074 H   0  0  0  0  0  0  0  0  0  0  0  0
    1.6262   -0.9238   -1.1815 H   0  0  0  0  0  0  0  0  0  0  0  0
    2.9213   -4.0351    0.9572 H   0  0  0  0  0  0  0  0  0  0  0  0
    4.6282   -2.7682    2.5080 H   0  0  0  0  0  0  0  0  0  0  0  0
    3.9534   -1.5637    3.7129 H   0  0  0  0  0  0  0  0  0  0  0  0
    2.9616   -2.9443    3.0716 H   0  0  0  0  0  0  0  0  0  0  0  0
    3.2692    1.6758    2.7727 H   0  0  0  0  0  0  0  0  0  0  0  0
    4.2649    0.3595    3.3405 H   0  0  0  0  0  0  0  0  0  0  0  0
    5.7203    1.9575    2.7977 H   0  0  0  0  0  0  0  0  0  0  0  0
    5.0097    2.4440    1.2560 H   0  0  0  0  0  0  0  0  0  0  0  0
    9.3608    0.2160    2.1013 H   0  0  0  0  0  0  0  0  0  0  0  0
    8.3655   -0.6145    0.9058 H   0  0  0  0  0  0  0  0  0  0  0  0
    9.3297    0.8474    0.4164 H   0  0  0  0  0  0  0  0  0  0  0  0
    1.1668    5.4708   -1.6669 H   0  0  0  0  0  0  0  0  0  0  0  0
    2.2143    4.7310   -0.4991 H   0  0  0  0  0  0  0  0  0  0  0  0
    3.7413    3.8925   -1.9740 H   0  0  0  0  0  0  0  0  0  0  0  0
    2.5480    3.7892   -3.3103 H   0  0  0  0  0  0  0  0  0  0  0  0
    3.2384    7.6134   -2.3431 H   0  0  0  0  0  0  0  0  0  0  0  0
   -0.6820    4.8356   -3.1864 H   0  0  0  0  0  0  0  0  0  0  0  0
   -1.2091    5.2542   -1.5295 H   0  0  0  0  0  0  0  0  0  0  0  0
   -2.1624    4.1014   -2.5562 H   0  0  0  0  0  0  0  0  0  0  0  0
   -4.7861    0.6318   -2.5754 H   0  0  0  0  0  0  0  0  0  0  0  0
   -4.3629   -1.0834   -2.7052 H   0  0  0  0  0  0  0  0  0  0  0  0
   -5.7895   -0.6455   -1.7570 H   0  0  0  0  0  0  0  0  0  0  0  0
   -4.5926   -3.2255    0.6337 H   0  0  0  0  0  0  0  0  0  0  0  0
   -6.4694   -1.8506    1.6281 H   0  0  0  0  0  0  0  0  0  0  0  0
   -8.6571    1.5381    3.3087 H   0  0  0  0  0  0  0  0  0  0  0  0
   -9.9341    0.4108    2.5757 H   0  0  0  0  0  0  0  0  0  0  0  0
   -9.2582    1.7307    1.6215 H   0  0  0  0  0  0  0  0  0  0  0  0
   -4.9631    1.5599   -0.3512 H   0  0  0  0  0  0  0  0  0  0  0  0
   -2.6256    2.8657    3.0183 H   0  0  0  0  0  0  0  0  0  0  0  0
   -1.2757    3.2221    1.9084 H   0  0  0  0  0  0  0  0  0  0  0  0
   -1.2166    1.7989    2.8802 H   0  0  0  0  0  0  0  0  0  0  0  0
  1  2  2  3
  2  3  1  0
  3  4  2  0
  4  5  1  0
  4  6  1  0
  6  7  1  0
  7  8  2  0
  8  9  1  0
  9 10  1  0
 10 11  2  0
 11 12  1  0
 12 13  2  0
 13 14  1  0
 14 15  2  0
 15 16  1  0
 16 17  1  0
 17 18  1  0
 18 19  1  0
 19 20  2  0
 20 21  1  0
 18 22  2  0
 22 23  1  0
 22 24  1  0
 24 25  1  0
 25 26  1  0
 26 27  1  0
 27 28  2  0
 27 29  1  0
 14 30  1  0
 30 31  1  0
 31 32  1  0
 32 33  1  0
 33 34  2  0
 33 35  1  0
 35 36  1  0
 30 37  2  0
 37 38  1  0
 10 39  1  0
 39 40  1  6
 39 41  1  0
 41 42  2  0
 42 43  1  0
 43 44  2  0
 44 45  1  0
 45 46  2  0
 45 47  1  0
 47 48  1  0
 44 49  1  0
 49 50  1  0
 50 51  2  0
 50 52  1  0
 52 53  1  0
 54 55  2  3
 55 56  1  0
 56 57  2  0
 57 58  1  0
 57 59  1  0
 59 60  1  0
 60 61  2  0
 61 62  1  0
 62 63  1  0
 63 64  2  0
 64 65  1  0
 65 66  2  0
 66 67  1  0
 67 68  2  0
 68 69  1  0
 69 70  1  0
 70 71  1  0
 71 72  1  0
 72 73  2  0
 73 74  1  0
 71 75  2  0
 75 76  1  0
 75 77  1  0
 77 78  1  0
 78 79  1  0
 79 80  1  0
 80 81  2  0
 80 82  1  0
 82 83  1  0
 67 84  1  0
 84 85  1  0
 85 86  1  0
 86 87  1  0
 87 88  2  0
 87 89  1  0
 84 90  2  0
 90 91  1  0
 63 92  1  0
 92 93  1  6
 92 94  1  0
 94 95  2  0
 95 96  1  0
 96 97  2  0
 97 98  1  0
 98 99  2  0
 98100  1  0
100101  1  0
 97102  1  0
102103  1  0
103104  2  0
103105  1  0
105106  1  0
 20  3  1  0
 49 39  1  0
 73 56  1  0
102 92  1  0
 21  6  2  0
 74 59  2  0
 41  8  1  0
 94 61  1  0
 37 12  1  0
 90 65  1  0
 24 16  2  0
 77 69  2  0
  1107  1  0
  1108  1  0
  2109  1  0
  5110  1  0
  5111  1  0
  5112  1  0
  7113  1  0
  9114  1  0
 11115  1  0
 15116  1  0
 17117  1  0
 19118  1  0
 23119  1  0
 23120  1  0
 23121  1  0
 25122  1  0
 25123  1  0
 26124  1  0
 26125  1  0
 29126  1  0
 31127  1  0
 31128  1  0
 32129  1  0
 32130  1  0
 36131  1  0
 36132  1  0
 36133  1  0
 38134  1  0
 38135  1  0
 38136  1  0
 40137  1  0
 40138  1  0
 40139  1  0
 42140  1  0
 43141  1  0
 48142  1  0
 48143  1  0
 48144  1  0
 49145  1  6
 53146  1  0
 53147  1  0
 53148  1  0
 54149  1  0
 54150  1  0
 55151  1  0
 58152  1  0
 58153  1  0
 58154  1  0
 60155  1  0
 62156  1  0
 64157  1  0
 68158  1  0
 70159  1  0
 72160  1  0
 76161  1  0
 76162  1  0
 76163  1  0
 78164  1  0
 78165  1  0
 79166  1  0
 79167  1  0
 83168  1  0
 83169  1  0
 83170  1  0
 85171  1  0
 85172  1  0
 86173  1  0
 86174  1  0
 89175  1  0
 91176  1  0
 91177  1  0
 91178  1  0
 93179  1  0
 93180  1  0
 93181  1  0
 95182  1  0
 96183  1  0
101184  1  0
101185  1  0
101186  1  0
102187  1  6
106188  1  0
106189  1  0
106190  1  0
M  END
$$$$
