
     RDKit          3D

 48 51  0  0  0  0  0  0  0  0999 V2000
    4.4685   -0.7041   -3.2541 O   0  0  0  0  0  0  0  0  0  0  0  0
    4.1706   -0.3673   -2.1110 C   0  0  0  0  0  0  0  0  0  0  0  0
    5.2666    0.0521   -1.2105 C   0  0  0  0  0  0  0  0  0  0  0  0
    5.4476   -0.5659    0.0327 C   0  0  0  0  0  0  0  0  0  0  0  0
    6.5072   -0.1753    0.8516 C   0  0  0  0  0  0  0  0  0  0  0  0
    7.3883    0.8201    0.4242 C   0  0  0  0  0  0  0  0  0  0  0  0
    7.2137    1.4160   -0.8274 C   0  0  0  0  0  0  0  0  0  0  0  0
    8.5377    2.8873   -1.4620 I   0  0  0  0  0  0  0  0  0  0  0  0
    6.1608    1.0302   -1.6546 C   0  0  0  0  0  0  0  0  0  0  0  0
    2.8664   -0.3672   -1.6333 N   0  0  0  0  0  0  0  0  0  0  0  0
    2.4069    0.3192   -0.4178 C   0  0  0  0  0  0  0  0  0  0  0  0
    1.0305    0.9980   -0.5863 C   0  0  0  0  0  0  0  0  0  0  0  0
    0.0163    0.0865   -1.1378 N   0  0  0  0  0  0  0  0  0  0  0  0
   -1.2385    0.0185   -0.5414 C   0  0  0  0  0  0  0  0  0  0  0  0
   -1.8848    1.1515   -0.0720 C   0  0  0  0  0  0  0  0  0  0  0  0
   -3.1598    1.0590    0.5001 C   0  0  0  0  0  0  0  0  0  0  0  0
   -3.7976   -0.1658    0.6065 C   0  0  0  0  0  0  0  0  0  0  0  0
   -5.0553   -0.2967    1.1429 N   0  0  0  0  0  0  0  0  0  0  0  0
   -5.6773    0.6694    2.0362 C   0  0  0  0  0  0  0  0  0  0  0  0
   -6.6727   -0.1603    2.8483 C   0  0  0  0  0  0  0  0  0  0  0  0
   -6.9902   -1.3348    1.9352 C   0  0  0  0  0  0  0  0  0  0  0  0
   -5.6439   -1.6230    1.2780 C   0  0  0  0  0  0  0  0  0  0  0  0
   -3.1564   -1.2473    0.1257 N   0  0  0  0  0  0  0  0  0  0  0  0
   -1.8884   -1.1555   -0.4479 N   0  0  0  0  0  0  0  0  0  0  0  0
    0.4973   -1.1573   -1.7626 C   0  0  0  0  0  0  0  0  0  0  0  0
    1.8193   -0.9081   -2.5051 C   0  0  0  0  0  0  0  0  0  0  0  0
    4.7793   -1.3592    0.3560 H   0  0  0  0  0  0  0  0  0  0  0  0
    6.6538   -0.6521    1.8178 H   0  0  0  0  0  0  0  0  0  0  0  0
    8.2127    1.1120    1.0709 H   0  0  0  0  0  0  0  0  0  0  0  0
    6.0269    1.4710   -2.6393 H   0  0  0  0  0  0  0  0  0  0  0  0
    2.3429   -0.4446    0.3663 H   0  0  0  0  0  0  0  0  0  0  0  0
    3.1372    1.0701   -0.1018 H   0  0  0  0  0  0  0  0  0  0  0  0
    0.7393    1.4022    0.3909 H   0  0  0  0  0  0  0  0  0  0  0  0
    1.1310    1.8451   -1.2756 H   0  0  0  0  0  0  0  0  0  0  0  0
   -1.4297    2.1304   -0.1732 H   0  0  0  0  0  0  0  0  0  0  0  0
   -3.6459    1.9677    0.8345 H   0  0  0  0  0  0  0  0  0  0  0  0
   -6.1989    1.4334    1.4486 H   0  0  0  0  0  0  0  0  0  0  0  0
   -4.9634    1.1590    2.7077 H   0  0  0  0  0  0  0  0  0  0  0  0
   -7.5611    0.4118    3.1306 H   0  0  0  0  0  0  0  0  0  0  0  0
   -6.1942   -0.5226    3.7662 H   0  0  0  0  0  0  0  0  0  0  0  0
   -7.3873   -2.1985    2.4753 H   0  0  0  0  0  0  0  0  0  0  0  0
   -7.7239   -1.0328    1.1777 H   0  0  0  0  0  0  0  0  0  0  0  0
   -5.7789   -2.1214    0.3123 H   0  0  0  0  0  0  0  0  0  0  0  0
   -5.0314   -2.2554    1.9320 H   0  0  0  0  0  0  0  0  0  0  0  0
   -0.2383   -1.5311   -2.4854 H   0  0  0  0  0  0  0  0  0  0  0  0
    0.6513   -1.9278   -0.9959 H   0  0  0  0  0  0  0  0  0  0  0  0
    2.1791   -1.8375   -2.9609 H   0  0  0  0  0  0  0  0  0  0  0  0
    1.6665   -0.1804   -3.3122 H   0  0  0  0  0  0  0  0  0  0  0  0
  1  2  2  0
  2  3  1  0
  3  4  2  0
  4  5  1  0
  5  6  2  0
  6  7  1  0
  7  8  1  0
  7  9  2  0
  2 10  1  0
 10 11  1  0
 11 12  1  0
 12 13  1  0
 13 14  1  0
 14 15  2  0
 15 16  1  0
 16 17  2  0
 17 18  1  0
 18 19  1  0
 19 20  1  0
 20 21  1  0
 21 22  1  0
 17 23  1  0
 23 24  2  0
 13 25  1  0
 25 26  1  0
  9  3  1  0
 26 10  1  0
 24 14  1  0
 22 18  1  0
  4 27  1  0
  5 28  1  0
  6 29  1  0
  9 30  1  0
 11 31  1  0
 11 32  1  0
 12 33  1  0
 12 34  1  0
 15 35  1  0
 16 36  1  0
 19 37  1  0
 19 38  1  0
 20 39  1  0
 20 40  1  0
 21 41  1  0
 21 42  1  0
 22 43  1  0
 22 44  1  0
 25 45  1  0
 25 46  1  0
 26 47  1  0
 26 48  1  0
M  END
$$$$
