
     RDKit          3D

 53 55  0  0  0  0  0  0  0  0999 V2000
    6.0155    1.0520   -0.5529 C   0  0  0  0  0  0  0  0  0  0  0  0
    4.6504    1.7292   -0.5741 C   0  0  0  0  0  0  0  0  0  0  0  0
    3.5911    0.8196   -1.0157 N   0  0  0  0  0  0  0  0  0  0  0  0
    3.4440    0.4958   -2.3585 C   0  0  0  0  0  0  0  0  0  0  0  0
    3.7150    1.5972   -3.3532 C   0  0  0  0  0  0  0  0  0  0  0  0
    3.2044   -0.6500   -2.7470 O   0  0  0  0  0  0  0  0  0  0  0  0
    2.8814    0.1067   -0.0463 C   0  0  0  0  0  0  0  0  0  0  0  0
    3.3881   -0.0669    1.1366 N   0  0  0  0  0  0  0  0  0  0  0  0
    2.6909   -0.8752    2.0498 C   0  0  0  0  0  0  0  0  0  0  0  0
    3.2668   -1.0456    3.3162 C   0  0  0  0  0  0  0  0  0  0  0  0
    2.6634   -1.8589    4.2746 C   0  0  0  0  0  0  0  0  0  0  0  0
    1.4730   -2.5103    3.9699 C   0  0  0  0  0  0  0  0  0  0  0  0
    0.8877   -2.3525    2.7080 C   0  0  0  0  0  0  0  0  0  0  0  0
    1.4885   -1.5403    1.7333 C   0  0  0  0  0  0  0  0  0  0  0  0
    0.9175   -1.3377    0.4439 N   0  0  0  0  0  0  0  0  0  0  0  0
   -0.3658   -1.8980    0.0510 C   0  0  0  0  0  0  0  0  0  0  0  0
   -1.5406   -0.9981    0.4711 C   0  0  0  0  0  0  0  0  0  0  0  0
   -1.6660   -0.6220    1.6369 O   0  0  0  0  0  0  0  0  0  0  0  0
   -2.3997   -0.7121   -0.5843 N   0  0  0  0  0  0  0  0  0  0  0  0
   -3.6362   -0.0210   -0.5468 C   0  0  0  0  0  0  0  0  0  0  0  0
   -4.1935    0.4564    0.6479 C   0  0  0  0  0  0  0  0  0  0  0  0
   -5.4387    1.1062    0.6662 C   0  0  0  0  0  0  0  0  0  0  0  0
   -5.9925    1.6415    1.9541 C   0  0  0  0  0  0  0  0  0  0  0  0
   -6.1282    1.2971   -0.5340 C   0  0  0  0  0  0  0  0  0  0  0  0
   -5.5864    0.8347   -1.7308 C   0  0  0  0  0  0  0  0  0  0  0  0
   -4.3430    0.1769   -1.7566 C   0  0  0  0  0  0  0  0  0  0  0  0
   -3.8128   -0.2781   -3.0903 C   0  0  0  0  0  0  0  0  0  0  0  0
    1.4782   -0.4049   -0.4247 C   0  0  0  0  0  0  0  0  0  0  0  0
    0.8829    0.0607   -1.3950 O   0  0  0  0  0  0  0  0  0  0  0  0
    6.3150    0.7296   -1.5589 H   0  0  0  0  0  0  0  0  0  0  0  0
    6.7755    1.7496   -0.1762 H   0  0  0  0  0  0  0  0  0  0  0  0
    6.0122    0.1664    0.0944 H   0  0  0  0  0  0  0  0  0  0  0  0
    4.4155    2.1067    0.4285 H   0  0  0  0  0  0  0  0  0  0  0  0
    4.6929    2.6021   -1.2337 H   0  0  0  0  0  0  0  0  0  0  0  0
    3.2661    2.5371   -3.0203 H   0  0  0  0  0  0  0  0  0  0  0  0
    4.7931    1.7203   -3.4953 H   0  0  0  0  0  0  0  0  0  0  0  0
    3.2570    1.3314   -4.3128 H   0  0  0  0  0  0  0  0  0  0  0  0
    4.2006   -0.5386    3.5494 H   0  0  0  0  0  0  0  0  0  0  0  0
    3.1202   -1.9799    5.2544 H   0  0  0  0  0  0  0  0  0  0  0  0
    0.9895   -3.1374    4.7165 H   0  0  0  0  0  0  0  0  0  0  0  0
   -0.0551   -2.8609    2.5329 H   0  0  0  0  0  0  0  0  0  0  0  0
   -0.3650   -2.0354   -1.0378 H   0  0  0  0  0  0  0  0  0  0  0  0
   -0.5129   -2.8987    0.4706 H   0  0  0  0  0  0  0  0  0  0  0  0
   -2.0734   -0.9720   -1.5060 H   0  0  0  0  0  0  0  0  0  0  0  0
   -3.6731    0.3349    1.5994 H   0  0  0  0  0  0  0  0  0  0  0  0
   -7.0867    1.6095    1.9476 H   0  0  0  0  0  0  0  0  0  0  0  0
   -5.6689    2.6771    2.1004 H   0  0  0  0  0  0  0  0  0  0  0  0
   -5.6580    1.0392    2.8063 H   0  0  0  0  0  0  0  0  0  0  0  0
   -7.0884    1.8080   -0.5444 H   0  0  0  0  0  0  0  0  0  0  0  0
   -6.1478    0.9917   -2.6509 H   0  0  0  0  0  0  0  0  0  0  0  0
   -4.5209   -0.0635   -3.9011 H   0  0  0  0  0  0  0  0  0  0  0  0
   -3.6458   -1.3611   -3.0870 H   0  0  0  0  0  0  0  0  0  0  0  0
   -2.8769    0.2416   -3.3253 H   0  0  0  0  0  0  0  0  0  0  0  0
  1  2  1  0
  2  3  1  0
  3  4  1  0
  4  5  1  0
  4  6  2  0
  3  7  1  0
  7  8  2  0
  8  9  1  0
  9 10  2  0
 10 11  1  0
 11 12  2  0
 12 13  1  0
 13 14  2  0
 14 15  1  0
 15 16  1  0
 16 17  1  0
 17 18  2  0
 17 19  1  0
 19 20  1  0
 20 21  2  0
 21 22  1  0
 22 23  1  0
 22 24  2  0
 24 25  1  0
 25 26  2  0
 26 27  1  0
 15 28  1  0
 28 29  2  0
 28  7  1  0
 14  9  1  0
 26 20  1  0
  1 30  1  0
  1 31  1  0
  1 32  1  0
  2 33  1  0
  2 34  1  0
  5 35  1  0
  5 36  1  0
  5 37  1  0
 10 38  1  0
 11 39  1  0
 12 40  1  0
 13 41  1  0
 16 42  1  0
 16 43  1  0
 19 44  1  0
 21 45  1  0
 23 46  1  0
 23 47  1  0
 23 48  1  0
 24 49  1  0
 25 50  1  0
 27 51  1  0
 27 52  1  0
 27 53  1  0
M  END
$$$$
