
     RDKit          3D

 50 52  0  0  0  0  0  0  0  0999 V2000
   -2.9482   -1.1988    3.1394 C   0  0  0  0  0  0  0  0  0  0  0  0
   -2.1875   -1.3512    1.9479 O   0  0  0  0  0  0  0  0  0  0  0  0
   -2.9898   -1.5192    0.7795 C   0  0  0  0  0  0  0  0  0  0  0  0
   -3.5898   -0.2095    0.2604 C   0  0  0  0  0  0  0  0  0  0  0  0
   -2.6323    0.5958   -0.5259 N   0  0  0  0  0  0  0  0  0  0  0  0
   -2.5135    0.2776   -1.9659 C   0  0  0  0  0  0  0  0  0  0  0  0
   -3.4552    1.1600   -2.7932 C   0  0  0  0  0  0  0  0  0  0  0  0
   -4.8020    0.6892   -2.6563 O   0  0  0  0  0  0  0  0  0  0  0  0
   -5.7183    1.5362   -3.3381 C   0  0  0  0  0  0  0  0  0  0  0  0
   -1.5796    1.6811    0.1998 S   0  0  0  0  0  6  0  0  0  0  0  0
   -2.1454    2.0948    1.4674 O   0  0  0  0  0  0  0  0  0  0  0  0
   -1.2056    2.6652   -0.7967 O   0  0  0  0  0  0  0  0  0  0  0  0
   -0.1057    0.7424    0.5437 C   0  0  0  0  0  0  0  0  0  0  0  0
    0.2275    0.4164    1.8583 C   0  0  0  0  0  0  0  0  0  0  0  0
    1.4028   -0.2899    2.1169 C   0  0  0  0  0  0  0  0  0  0  0  0
    2.2681   -0.6334    1.0712 C   0  0  0  0  0  0  0  0  0  0  0  0
    1.9572   -0.2838   -0.2389 C   0  0  0  0  0  0  0  0  0  0  0  0
    0.7693    0.4210   -0.4982 C   0  0  0  0  0  0  0  0  0  0  0  0
    2.7986   -0.6323   -1.4025 C   0  0  0  0  0  0  0  0  0  0  0  0
    2.2664   -0.7642   -2.5058 O   0  0  0  0  0  0  0  0  0  0  0  0
    4.1644   -0.6898   -1.3111 N   0  0  0  0  0  0  0  0  0  0  0  0
    4.9920   -0.5923   -0.1865 C   0  0  0  0  0  0  0  0  0  0  0  0
    6.3310   -0.2428   -0.4078 C   0  0  0  0  0  0  0  0  0  0  0  0
    7.2260   -0.1362    0.6597 C   0  0  0  0  0  0  0  0  0  0  0  0
    6.7965   -0.4025    1.9568 C   0  0  0  0  0  0  0  0  0  0  0  0
    5.4755   -0.7856    2.1815 C   0  0  0  0  0  0  0  0  0  0  0  0
    4.5741   -0.8736    1.1142 C   0  0  0  0  0  0  0  0  0  0  0  0
    3.3453   -1.4007    1.4154 O   0  0  0  0  0  0  0  0  0  0  0  0
   -3.5979   -2.0652    3.2948 H   0  0  0  0  0  0  0  0  0  0  0  0
   -3.5408   -0.2811    3.1162 H   0  0  0  0  0  0  0  0  0  0  0  0
   -2.2530   -1.1343    3.9808 H   0  0  0  0  0  0  0  0  0  0  0  0
   -3.7882   -2.2399    0.9934 H   0  0  0  0  0  0  0  0  0  0  0  0
   -2.3493   -1.9707    0.0146 H   0  0  0  0  0  0  0  0  0  0  0  0
   -4.4424   -0.4558   -0.3820 H   0  0  0  0  0  0  0  0  0  0  0  0
   -3.9998    0.4002    1.0701 H   0  0  0  0  0  0  0  0  0  0  0  0
   -1.4884    0.4377   -2.3060 H   0  0  0  0  0  0  0  0  0  0  0  0
   -2.7386   -0.7823   -2.1300 H   0  0  0  0  0  0  0  0  0  0  0  0
   -3.3930    2.2066   -2.4740 H   0  0  0  0  0  0  0  0  0  0  0  0
   -3.1736    1.0929   -3.8503 H   0  0  0  0  0  0  0  0  0  0  0  0
   -6.7239    1.1253   -3.2136 H   0  0  0  0  0  0  0  0  0  0  0  0
   -5.6982    2.5440   -2.9120 H   0  0  0  0  0  0  0  0  0  0  0  0
   -5.4849    1.5728   -4.4068 H   0  0  0  0  0  0  0  0  0  0  0  0
   -0.4317    0.6821    2.6814 H   0  0  0  0  0  0  0  0  0  0  0  0
    1.6410   -0.5815    3.1372 H   0  0  0  0  0  0  0  0  0  0  0  0
    0.5429    0.7276   -1.5168 H   0  0  0  0  0  0  0  0  0  0  0  0
    4.6066   -0.6995   -2.2224 H   0  0  0  0  0  0  0  0  0  0  0  0
    6.6908   -0.0328   -1.4125 H   0  0  0  0  0  0  0  0  0  0  0  0
    8.2592    0.1492    0.4762 H   0  0  0  0  0  0  0  0  0  0  0  0
    7.4927   -0.3317    2.7885 H   0  0  0  0  0  0  0  0  0  0  0  0
    5.1487   -1.0336    3.1880 H   0  0  0  0  0  0  0  0  0  0  0  0
  1  2  1  0
  2  3  1  0
  3  4  1  0
  4  5  1  0
  5  6  1  0
  6  7  1  0
  7  8  1  0
  8  9  1  0
  5 10  1  0
 10 11  2  0
 10 12  2  0
 10 13  1  0
 13 14  2  0
 14 15  1  0
 15 16  2  0
 16 17  1  0
 17 18  2  0
 17 19  1  0
 19 20  2  0
 19 21  1  0
 21 22  1  0
 22 23  2  0
 23 24  1  0
 24 25  2  0
 25 26  1  0
 26 27  2  0
 27 28  1  0
 18 13  1  0
 27 22  1  0
 28 16  1  0
  1 29  1  0
  1 30  1  0
  1 31  1  0
  3 32  1  0
  3 33  1  0
  4 34  1  0
  4 35  1  0
  6 36  1  0
  6 37  1  0
  7 38  1  0
  7 39  1  0
  9 40  1  0
  9 41  1  0
  9 42  1  0
 14 43  1  0
 15 44  1  0
 18 45  1  0
 21 46  1  0
 23 47  1  0
 24 48  1  0
 25 49  1  0
 26 50  1  0
M  END
$$$$
