
     RDKit          3D

 14 14  0  0  0  0  0  0  0  0999 V2000
   -2.1452   -1.1601   -0.3353 O   0  0  0  0  0  0  0  0  0  0  0  0
   -0.9074   -0.6091   -0.1548 C   0  0  0  0  0  0  0  0  0  0  0  0
    0.2276   -1.4182   -0.1330 C   0  0  0  0  0  0  0  0  0  0  0  0
    1.4845   -0.8388    0.0525 C   0  0  0  0  0  0  0  0  0  0  0  0
    1.6029    0.5427    0.2151 C   0  0  0  0  0  0  0  0  0  0  0  0
    0.4650    1.3518    0.1930 C   0  0  0  0  0  0  0  0  0  0  0  0
   -0.7890    0.7718    0.0077 C   0  0  0  0  0  0  0  0  0  0  0  0
   -1.9129    1.5493   -0.0165 O   0  0  0  0  0  0  0  0  0  0  0  0
   -2.0516   -2.1197   -0.4312 H   0  0  0  0  0  0  0  0  0  0  0  0
    0.1527   -2.4936   -0.2578 H   0  0  0  0  0  0  0  0  0  0  0  0
    2.3733   -1.4648    0.0704 H   0  0  0  0  0  0  0  0  0  0  0  0
    2.5836    0.9894    0.3593 H   0  0  0  0  0  0  0  0  0  0  0  0
    0.5742    2.4239    0.3208 H   0  0  0  0  0  0  0  0  0  0  0  0
   -1.6578    2.4755    0.1096 H   0  0  0  0  0  0  0  0  0  0  0  0
  1  2  1  0
  2  3  2  0
  3  4  1  0
  4  5  2  0
  5  6  1  0
  6  7  2  0
  7  8  1  0
  7  2  1  0
  1  9  1  0
  3 10  1  0
  4 11  1  0
  5 12  1  0
  6 13  1  0
  8 14  1  0
M  END
$$$$
