
     RDKit          3D

 49 52  0  0  0  0  0  0  0  0999 V2000
    5.1386    1.8553    0.8159 C   0  0  0  0  0  0  0  0  0  0  0  0
    5.0009    0.3987    0.8989 N   0  0  0  0  0  0  0  0  0  0  0  0
    6.3245   -0.2239    0.7962 C   0  0  0  0  0  0  0  0  0  0  0  0
    4.1130   -0.1339   -0.1489 C   0  0  0  0  0  0  0  0  0  0  0  0
    2.6480    0.2714    0.0502 C   0  0  0  0  0  0  0  0  0  0  0  0
    1.7481   -0.4353   -0.9636 C   0  0  0  0  0  0  0  0  0  0  0  0
    0.3590   -0.0246   -0.8401 N   0  0  0  0  0  0  0  0  0  0  0  0
   -0.1588    1.1034   -1.4602 C   0  0  0  0  0  0  0  0  0  0  0  0
    0.3754    1.8078   -2.2962 O   0  0  0  0  0  0  0  0  0  0  0  0
   -1.4928    1.3280   -0.8768 C   0  0  0  0  0  0  0  0  0  0  0  0
   -2.3343    2.3537   -1.2021 O   0  0  0  0  0  0  0  0  0  0  0  0
   -3.5165    2.4067   -0.4965 C   0  0  0  0  0  0  0  0  0  0  0  0
   -4.4207    3.4092   -0.8481 C   0  0  0  0  0  0  0  0  0  0  0  0
   -5.6314    3.5153   -0.1612 C   0  0  0  0  0  0  0  0  0  0  0  0
   -5.9249    2.6231    0.8686 C   0  0  0  0  0  0  0  0  0  0  0  0
   -7.0886    2.7361    1.5212 F   0  0  0  0  0  0  0  0  0  0  0  0
   -5.0333    1.6207    1.2314 C   0  0  0  0  0  0  0  0  0  0  0  0
   -3.8246    1.5134    0.5421 C   0  0  0  0  0  0  0  0  0  0  0  0
   -2.8478    0.4627    0.9064 C   0  0  0  0  0  0  0  0  0  0  0  0
   -3.0110   -0.2783    1.8641 O   0  0  0  0  0  0  0  0  0  0  0  0
   -1.6603    0.3985    0.0636 C   0  0  0  0  0  0  0  0  0  0  0  0
   -0.5359   -0.5608    0.1792 C   0  0  0  0  0  0  0  0  0  0  0  0
   -0.9299   -2.0014   -0.0842 C   0  0  0  0  0  0  0  0  0  0  0  0
   -1.1237   -2.8726    1.0002 C   0  0  0  0  0  0  0  0  0  0  0  0
   -1.5039   -4.1998    0.7922 C   0  0  0  0  0  0  0  0  0  0  0  0
   -1.7016   -4.6750   -0.5018 C   0  0  0  0  0  0  0  0  0  0  0  0
   -1.5257   -3.8227   -1.5889 C   0  0  0  0  0  0  0  0  0  0  0  0
   -1.1476   -2.4944   -1.3830 C   0  0  0  0  0  0  0  0  0  0  0  0
    4.1863    2.3567    1.0133 H   0  0  0  0  0  0  0  0  0  0  0  0
    5.5086    2.1804   -0.1632 H   0  0  0  0  0  0  0  0  0  0  0  0
    5.8332    2.2195    1.5818 H   0  0  0  0  0  0  0  0  0  0  0  0
    6.9813    0.1315    1.5982 H   0  0  0  0  0  0  0  0  0  0  0  0
    6.2499   -1.3106    0.9152 H   0  0  0  0  0  0  0  0  0  0  0  0
    6.8068   -0.0132   -0.1652 H   0  0  0  0  0  0  0  0  0  0  0  0
    4.4563    0.1734   -1.1455 H   0  0  0  0  0  0  0  0  0  0  0  0
    4.1566   -1.2308   -0.1221 H   0  0  0  0  0  0  0  0  0  0  0  0
    2.3271    0.0181    1.0681 H   0  0  0  0  0  0  0  0  0  0  0  0
    2.5281    1.3550   -0.0612 H   0  0  0  0  0  0  0  0  0  0  0  0
    2.0819   -0.1886   -1.9783 H   0  0  0  0  0  0  0  0  0  0  0  0
    1.8047   -1.5228   -0.8490 H   0  0  0  0  0  0  0  0  0  0  0  0
   -4.1853    4.1041   -1.6505 H   0  0  0  0  0  0  0  0  0  0  0  0
   -6.3489    4.2886   -0.4201 H   0  0  0  0  0  0  0  0  0  0  0  0
   -5.2849    0.9393    2.0387 H   0  0  0  0  0  0  0  0  0  0  0  0
   -0.0393   -0.4576    1.1511 H   0  0  0  0  0  0  0  0  0  0  0  0
   -0.9957   -2.5172    2.0216 H   0  0  0  0  0  0  0  0  0  0  0  0
   -1.6541   -4.8599    1.6428 H   0  0  0  0  0  0  0  0  0  0  0  0
   -2.0001   -5.7077   -0.6620 H   0  0  0  0  0  0  0  0  0  0  0  0
   -1.6860   -4.1912   -2.5990 H   0  0  0  0  0  0  0  0  0  0  0  0
   -1.0204   -1.8485   -2.2494 H   0  0  0  0  0  0  0  0  0  0  0  0
  1  2  1  0
  2  3  1  0
  2  4  1  0
  4  5  1  0
  5  6  1  0
  6  7  1  0
  7  8  1  0
  8  9  2  0
  8 10  1  0
 10 11  1  0
 11 12  1  0
 12 13  2  0
 13 14  1  0
 14 15  2  0
 15 16  1  0
 15 17  1  0
 17 18  2  0
 18 19  1  0
 19 20  2  0
 19 21  1  0
 21 22  1  0
 22 23  1  0
 23 24  2  0
 24 25  1  0
 25 26  2  0
 26 27  1  0
 27 28  2  0
 22  7  1  0
 28 23  1  0
 21 10  2  0
 18 12  1  0
  1 29  1  0
  1 30  1  0
  1 31  1  0
  3 32  1  0
  3 33  1  0
  3 34  1  0
  4 35  1  0
  4 36  1  0
  5 37  1  0
  5 38  1  0
  6 39  1  0
  6 40  1  0
 13 41  1  0
 14 42  1  0
 17 43  1  0
 22 44  1  0
 24 45  1  0
 25 46  1  0
 26 47  1  0
 27 48  1  0
 28 49  1  0
M  END
$$$$
